* CDL Netlist generated by OpenROAD

*.BUSDELIMITER [
.include "/foss/pdks/ihp-sg13g2/libs.ref/sg13g2_stdcell/cdl/sg13g2_stdcell.cdl"
.SUBCKT digital_block_top ADC_INPUT ADC_INPUT_VALID CLK CS
+ DATA_READY FREEZE MISO MOSI RESET SCAN_OUT SCAN_VALID SCK
+ VDD VSS
Xplace559 net558 net559 VDD VSS sg13g2_buf_1
Xclkbuf_3_1__f_CLK clknet_3_1__leaf_CLK clknet_0_CLK VDD VSS
+ sg13g2_buf_16
Xplace557 net556 net242 VDD VSS sg13g2_buf_1
Xclkbuf_leaf_1_CLK clknet_leaf_1_CLK clknet_3_0__leaf_CLK
+ VDD VSS sg13g2_buf_16
Xclkbuf_leaf_0_CLK clknet_leaf_0_CLK clknet_3_0__leaf_CLK
+ VDD VSS sg13g2_buf_16
Xplace556 net555 net242 VDD VSS sg13g2_buf_1
X_1073_ _0627_ net525 net522 VDD VSS sg13g2_nor2_1
Xclkbuf_leaf_2_CLK clknet_leaf_2_CLK clknet_3_0__leaf_CLK
+ VDD VSS sg13g2_buf_16
X_1075_ _0629_ net238 serializer_inst.fake_adc.skid.bypass_rg
+ VDD VSS sg13g2_nand2b_2
X_1076_ _0630_ net519 _0627_ _0629_ VDD VSS sg13g2_mux2_1
X_1077_ _0631_ afe_controller_inst.AFE_CRTL_OUTPUTS\[1\] net522
+ VDD VSS sg13g2_nor2b_1
X_1078_ _0632_ net519 _0629_ _0631_ VDD VSS sg13g2_a21o_1
X_1079_ _0633_ net525 VDD VSS sg13g2_inv_1
Xplace555 net554 net555 VDD VSS sg13g2_buf_1
Xplace549 net548 net549 VDD VSS sg13g2_buf_1
X_1082_ _0636_ net523 _0630_ _0632_ _0633_ net518 VDD VSS
+ sg13g2_a221oi_1
X_1083_ _0637_ afe_controller_inst.AFE_CRTL_OUTPUTS\[3\] VDD
+ VSS sg13g2_inv_1
Xplace544 net543 net544 VDD VSS sg13g2_buf_1
X_1085_ _0639_ net519 net526 VDD VSS sg13g2_nor2b_1
X_1086_ _0640_ afe_controller_inst.AFE_CRTL_OUTPUTS\[4\] VDD
+ VSS sg13g2_inv_1
X_1087_ _0641_ _0637_ _0627_ _0631_ _0639_ _0640_ VDD VSS
+ sg13g2_a221oi_1
Xplace543 net542 net543 VDD VSS sg13g2_buf_1
X_1089_ _0643_ net240 afe_controller_inst.CONFIG_VALID VDD
+ VSS sg13g2_nand2_1
X_1090_ _0644_ net562 _0643_ VDD VSS sg13g2_nor2_2
X_1091_ _0645_ _0641_ _0644_ VDD VSS sg13g2_nand2b_1
X_1092_ _0646_ net565 net561 VDD VSS sg13g2_nor2_1
X_1093_ _0647_ net526 _0646_ VDD VSS sg13g2_nand2_1
X_1094_ _0648_ _0636_ _0645_ _0647_ VDD VSS sg13g2_o21ai_1
Xplace542 net541 net544 VDD VSS sg13g2_buf_1
X_1096_ _0650_ afe_controller_inst.AFE_CRTL_OUTPUTS\[0\] afe_controller_inst.AFE_CRTL_OUTPUTS\[2\]
+ afe_controller_inst.AFE_CRTL_OUTPUTS\[3\] VDD VSS sg13g2_or3_1
X_1097_ _0651_ net524 afe_controller_inst.CONFIG_VALUES\[0\]
+ VDD VSS sg13g2_nand2b_1
X_1098_ _0652_ net517 afe_controller_inst.valid_control.state
+ _0650_ _0651_ VDD VSS sg13g2_nor4_1
X_1099_ _0653_ afe_controller_inst.fifo.w_ptr\[2\] afe_controller_inst.fifo.r_ptr\[2\]
+ VDD VSS sg13g2_xor2_1
X_1100_ _0654_ net517 _0653_ _0650_ _0651_ VDD VSS sg13g2_nor4_1
Xplace548 net547 net552 VDD VSS sg13g2_buf_1
X_1102_ _0656_ afe_controller_inst.fifo.r_ptr\[1\] afe_controller_inst.fifo.w_ptr\[1\]
+ VDD VSS sg13g2_xor2_1
X_1103_ _0657_ afe_controller_inst.fifo.r_ptr\[0\] afe_controller_inst.fifo.w_ptr\[0\]
+ VDD VSS sg13g2_xor2_1
X_1104_ _0658_ net563 _0656_ _0657_ VDD VSS sg13g2_nor3_2
X_1105_ _0659_ _0652_ _0654_ _0658_ VDD VSS sg13g2_mux2_1
X_1106_ _0660_ afe_controller_inst.CONFIG_VALUES\[3\] _0659_
+ _0644_ VDD VSS sg13g2_nand3b_1
X_1107_ _0661_ _0648_ _0660_ VDD VSS sg13g2_nand2b_1
Xplace545 net544 net545 VDD VSS sg13g2_buf_1
X_1109_ _0662_ net524 VDD VSS sg13g2_inv_1
X_1110_ _0663_ afe_controller_inst.AFE_CRTL_OUTPUTS\[0\] net522
+ afe_controller_inst.AFE_CRTL_OUTPUTS\[3\] VDD VSS sg13g2_nor3_2
X_1111_ _0664_ _0640_ afe_controller_inst.CONFIG_VALUES\[0\]
+ _0662_ _0663_ VDD VSS sg13g2_nand4_1
X_1112_ _0665_ afe_controller_inst.CONFIG_VALUES\[2\] afe_controller_inst.CONFIG_VALUES\[3\]
+ VDD VSS sg13g2_xnor2_1
X_1113_ _0666_ afe_controller_inst.valid_control.state _0658_
+ _0664_ _0665_ VDD VSS sg13g2_nor4_2
X_1114_ _0667_ net563 _0656_ _0657_ VDD VSS sg13g2_or3_1
X_1115_ _0668_ _0667_ _0653_ _0664_ _0665_ VDD VSS sg13g2_nor4_2
X_1116_ _0669_ _0666_ _0668_ _0644_ VDD VSS sg13g2_o21ai_1
X_1117_ _0670_ net518 afe_controller_inst.AFE_CRTL_OUTPUTS\[3\]
+ VDD VSS sg13g2_nor2b_1
X_1118_ _0671_ net238 serializer_inst.fake_adc.skid.bypass_rg
+ VDD VSS sg13g2_nor2b_1
X_1119_ _0672_ net520 _0671_ afe_controller_inst.AFE_CRTL_OUTPUTS\[0\]
+ VDD VSS sg13g2_mux2_1
X_1120_ _0673_ _0670_ _0672_ _0663_ VDD VSS sg13g2_a21o_1
X_1121_ _0674_ _0662_ net561 _0643_ VDD VSS sg13g2_nor3_1
Xplace547 net546 net552 VDD VSS sg13g2_buf_1
X_1123_ _0676_ net517 net520 net519 VDD VSS sg13g2_o21ai_1
X_1124_ _0677_ net526 _0662_ _0644_ _0676_ VDD VSS sg13g2_and4_1
X_1125_ _0678_ net523 _0646_ _0673_ _0674_ _0677_ VDD VSS
+ sg13g2_a221oi_1
X_1126_ _0679_ _0669_ _0678_ VDD VSS sg13g2_and2_1
Xplace546 net545 net546 VDD VSS sg13g2_buf_1
X_1128_ _0158_ _0679_ VDD VSS sg13g2_inv_1
Xplace554 net553 net554 VDD VSS sg13g2_buf_1
X_1130_ _0682_ _0633_ afe_controller_inst.AFE_CRTL_OUTPUTS\[1\]
+ _0670_ VDD VSS sg13g2_nand3_1
X_1131_ _0683_ net525 afe_controller_inst.AFE_CRTL_OUTPUTS\[1\]
+ VDD VSS sg13g2_nand2_1
X_1132_ _0684_ net518 _0637_ _0683_ VDD VSS sg13g2_nand3_1
X_1133_ _0685_ _0682_ _0684_ net521 VDD VSS sg13g2_a21oi_1
Xplace553 net552 net242 VDD VSS sg13g2_buf_1
Xplace552 net551 net552 VDD VSS sg13g2_buf_1
X_1136_ _0688_ net526 net520 VDD VSS sg13g2_and2_1
X_1137_ _0689_ net523 _0629_ _0688_ _0670_ VDD VSS sg13g2_nand4_1
X_1138_ _0690_ net567 afe_controller_inst.CONFIG_VALID _0689_
+ VDD VSS sg13g2_nand3_1
X_1139_ _0691_ _0685_ _0690_ VDD VSS sg13g2_nor2_1
X_1140_ _0692_ net517 net566 VDD VSS sg13g2_nor2_1
X_1141_ _0693_ net561 _0691_ _0692_ VDD VSS sg13g2_or3_1
Xplace551 net550 net551 VDD VSS sg13g2_buf_1
X_1143_ _0224_ _0693_ VDD VSS sg13g2_inv_1
X_1144_ _0695_ net479 _0158_ _0224_ VDD VSS sg13g2_a21oi_1
X_1145_ _0696_ _0633_ _0637_ net521 VDD VSS sg13g2_o21ai_1
X_1146_ _0697_ afe_controller_inst.AFE_CRTL_OUTPUTS\[1\] net522
+ VDD VSS sg13g2_and2_1
X_1147_ _0698_ net522 afe_controller_inst.AFE_CRTL_OUTPUTS\[3\]
+ VDD VSS sg13g2_nor2b_1
X_1148_ _0699_ _0697_ _0698_ _0671_ VDD VSS sg13g2_mux2_1
X_1149_ _0700_ net521 net525 VDD VSS sg13g2_nand2b_1
X_1150_ _0701_ afe_controller_inst.AFE_CRTL_OUTPUTS\[3\] afe_controller_inst.AFE_CRTL_OUTPUTS\[1\]
+ VDD VSS sg13g2_nor2b_1
X_1151_ _0702_ _0700_ _0701_ net518 VDD VSS sg13g2_a21o_1
X_1152_ _0703_ _0662_ _0696_ _0699_ net525 _0702_ VDD VSS
+ sg13g2_a221oi_1
X_1153_ _0704_ _0643_ _0703_ _0666_ _0668_ VDD VSS sg13g2_nor4_1
X_1154_ _0705_ net566 VDD VSS sg13g2_inv_1
X_1155_ _0706_ net520 VDD VSS sg13g2_inv_1
X_1156_ _0707_ _0705_ _0706_ net563 VDD VSS sg13g2_a21oi_1
X_1157_ _0708_ _0704_ _0707_ VDD VSS sg13g2_nand2b_1
Xplace550 net549 net551 VDD VSS sg13g2_buf_1
X_1159_ _0710_ _0708_ VDD VSS sg13g2_inv_4
Xclkbuf_leaf_3_CLK clknet_leaf_3_CLK clknet_3_1__leaf_CLK
+ VDD VSS sg13g2_buf_16
X_1161_ _0711_ afe_controller_inst.CONFIG_VALUES\[2\] afe_controller_inst.CONFIG_VALUES\[3\]
+ VDD VSS sg13g2_nand2b_1
X_1162_ _0712_ net517 afe_controller_inst.valid_control.state
+ _0650_ _0651_ VDD VSS sg13g2_or4_1
X_1163_ _0713_ net517 _0653_ _0650_ _0651_ VDD VSS sg13g2_or4_1
X_1164_ _0714_ _0712_ _0713_ _0658_ VDD VSS sg13g2_mux2_2
X_1165_ _0715_ net521 afe_controller_inst.AFE_CRTL_OUTPUTS\[1\]
+ VDD VSS sg13g2_nor2b_1
X_1166_ _0716_ net525 _0715_ _0700_ VDD VSS sg13g2_o21ai_1
X_1167_ _0717_ net519 _0629_ VDD VSS sg13g2_nand2_1
X_1168_ _0718_ net525 net522 VDD VSS sg13g2_nand2_1
X_1169_ _0719_ net518 _0662_ _0718_ VDD VSS sg13g2_nor3_1
X_1170_ _0720_ _0640_ net523 net519 _0718_ VDD VSS sg13g2_nor4_1
X_1171_ _0721_ _0670_ _0716_ _0717_ _0719_ _0720_ VDD VSS
+ sg13g2_a221oi_1
X_1172_ _0722_ _0711_ _0714_ _0721_ VDD VSS sg13g2_o21ai_1
X_1173_ _0191_ _0646_ VDD VSS sg13g2_inv_1
X_1174_ _0723_ _0637_ _0191_ VDD VSS sg13g2_nor2_1
X_1175_ _0724_ _0644_ _0722_ _0723_ VDD VSS sg13g2_a21oi_2
X_1176_ _0144_ _0724_ VDD VSS sg13g2_inv_8
X_1177_ _0725_ _0710_ net471 VDD VSS sg13g2_nor2_1
X_1178_ _0726_ _0695_ _0725_ VDD VSS sg13g2_nand2b_1
X_1179_ _0727_ net472 _0661_ net478 VDD VSS sg13g2_nor3_1
X_1180_ _0728_ _0661_ net478 VDD VSS sg13g2_and2_1
Xplace535 net534 net535 VDD VSS sg13g2_buf_1
X_1182_ _0730_ _0724_ _0224_ VDD VSS sg13g2_nor2_2
X_1183_ _0731_ _0727_ _0728_ _0730_ VDD VSS sg13g2_o21ai_1
X_1184_ _0732_ net471 _0661_ _0158_ VDD VSS sg13g2_o21ai_1
X_1185_ _0733_ net472 net477 _0732_ VDD VSS sg13g2_nand3_1
X_1186_ _0006_ _0726_ _0731_ _0733_ VDD VSS sg13g2_nand3_1
X_1187_ _0734_ _0724_ net478 VDD VSS sg13g2_nor2_2
X_1188_ _0735_ _0734_ _0728_ net472 VDD VSS sg13g2_mux2_1
X_1189_ _0736_ net472 net478 VDD VSS sg13g2_nor2_1
X_1190_ _0737_ net479 _0679_ VDD VSS sg13g2_nand2_1
X_1191_ _0738_ _0736_ _0737_ VDD VSS sg13g2_nand2b_1
X_1192_ _0739_ net471 net477 VDD VSS sg13g2_nor2_1
X_1193_ _0740_ _0708_ net471 _0224_ net479 VDD VSS sg13g2_nor4_1
X_1194_ _0005_ net477 _0735_ _0738_ _0739_ _0740_ VDD VSS
+ sg13g2_a221oi_1
X_1195_ _0741_ _0724_ _0661_ VDD VSS sg13g2_xnor2_1
X_1196_ _0742_ net472 net477 net478 VDD VSS sg13g2_nand3_1
X_1197_ _0743_ _0736_ _0730_ _0739_ _0728_ VDD VSS sg13g2_a22oi_1
X_1198_ _0004_ _0741_ _0742_ _0743_ VDD VSS sg13g2_o21ai_1
X_1199_ _0744_ net479 _0679_ VDD VSS sg13g2_nand2b_2
X_1200_ _0745_ _0710_ net471 _0224_ _0744_ VDD VSS sg13g2_or4_1
X_1201_ _0003_ _0725_ net477 _0745_ VDD VSS sg13g2_o21ai_1
X_1202_ _0746_ net471 _0744_ net477 VDD VSS sg13g2_o21ai_1
X_1203_ _0747_ _0710_ _0158_ _0224_ VDD VSS sg13g2_a21oi_1
X_1204_ _0748_ _0724_ _0747_ VDD VSS sg13g2_nor2_1
X_1205_ _0002_ _0224_ _0737_ _0746_ _0708_ _0748_ VDD VSS
+ sg13g2_a221oi_1
X_1206_ _0749_ _0708_ _0728_ _0724_ VDD VSS sg13g2_o21ai_1
X_1207_ _0750_ _0710_ _0744_ _0730_ VDD VSS sg13g2_o21ai_1
X_1208_ _0001_ net477 _0749_ _0750_ VDD VSS sg13g2_o21ai_1
X_1209_ _0751_ _0744_ _0708_ VDD VSS sg13g2_nand2b_1
X_1210_ _0752_ net472 _0737_ VDD VSS sg13g2_nand2_1
X_1211_ _0000_ _0751_ _0730_ _0739_ _0752_ VDD VSS sg13g2_a22oi_1
Xplace565 net564 net567 VDD VSS sg13g2_buf_1
Xplace534 net533 _0705_ VDD VSS sg13g2_buf_1
X_1214_ _0755_ main_fsm_top_inst.MAIN_TOP_OUTPUTS\[0\] VDD
+ VSS sg13g2_inv_1
X_1215_ _0756_ main_fsm_top_inst.MAIN_TOP_OUTPUTS\[1\] _0755_
+ VDD VSS sg13g2_nand2_1
Xplace536 net535 net546 VDD VSS sg13g2_buf_1
X_1217_ net245 main_fsm_top_inst.spi_top_inst.load_in\[7\]
+ main_fsm_top_inst.spi_top_inst.spi_reg.bit_cell7.DATA_OUT
+ _0756_ VDD VSS sg13g2_mux2_1
Xplace533 net532 _0931_ VDD VSS sg13g2_buf_1
Xplace532 net531 _0009_ VDD VSS sg13g2_buf_1
Xplace566 net565 net566 VDD VSS sg13g2_buf_1
X_1221_ _0761_ afe_controller_inst.valid_control.state VDD
+ VSS sg13g2_inv_1
X_1222_ _0762_ net563 _0656_ _0657_ _0653_ VDD VSS sg13g2_nor4_1
X_1223_ _0763_ _0761_ _0667_ _0762_ VDD VSS sg13g2_a21o_1
Xplace531 net530 _0009_ VDD VSS sg13g2_buf_1
X_1225_ _0765_ afe_controller_inst.clear net566 VDD VSS sg13g2_nand2b_1
Xplace529 net528 _0010_ VDD VSS sg13g2_buf_1
X_1227_ _0767_ _0763_ _0765_ VDD VSS sg13g2_nor2_1
X_1228_ _0768_ net533 afe_controller_inst.valid_control.state
+ _0767_ VDD VSS sg13g2_a21oi_1
X_1229_ _0012_ net563 _0768_ VDD VSS sg13g2_nor2_1
Xplace567 net566 net567 VDD VSS sg13g2_buf_1
Xplace530 net529 _0010_ VDD VSS sg13g2_buf_1
Xplace528 net527 afe_controller_inst.fifo.w_ptr\[1\] VDD VSS
+ sg13g2_buf_1
Xplace568 net567 net240 VDD VSS sg13g2_buf_1
Xplace527 net526 afe_controller_inst.AFE_CRTL_OUTPUTS\[0\]
+ VDD VSS sg13g2_buf_1
Xplace526 net525 net526 VDD VSS sg13g2_buf_1
X_1236_ _0775_ main_fsm_top_inst.MAIN_TOP_OUTPUTS\[8\] main_fsm_top_inst.MAIN_TOP_OUTPUTS\[9\]
+ VDD VSS sg13g2_nand2b_1
X_1237_ _0776_ net514 afe_controller_inst.CONFIG_VALID _0775_
+ VDD VSS sg13g2_nor3_1
Xclkbuf_leaf_21_CLK clknet_leaf_21_CLK clknet_3_4__leaf_CLK
+ VDD VSS sg13g2_buf_16
X_1239_ _0778_ main_fsm_top_inst.spi_top_inst.counter_module.COUNTER\[0\]
+ main_fsm_top_inst.spi_top_inst.counter_module.COUNTER\[1\]
+ main_fsm_top_inst.spi_top_inst.counter_module.COUNTER\[2\]
+ main_fsm_top_inst.spi_top_inst.counter_module.COUNTER\[3\]
+ VDD VSS sg13g2_and4_1
Xplace525 net524 afe_controller_inst.AFE_CRTL_OUTPUTS\[1\]
+ VDD VSS sg13g2_buf_1
Xplace524 net523 net524 VDD VSS sg13g2_buf_1
Xplace522 net521 net522 VDD VSS sg13g2_buf_1
X_1243_ _0782_ main_fsm_top_inst.MAIN_TOP_OUTPUTS\[3\] main_fsm_top_inst.spi_dout_rdy_sig
+ VDD VSS sg13g2_nand2b_1
Xplace521 net520 net522 VDD VSS sg13g2_buf_1
X_1245_ _0784_ main_fsm_top_inst.MAIN_TOP_OUTPUTS\[4\] main_fsm_top_inst.spi_dout_rdy_sig
+ VDD VSS sg13g2_nand2_1
X_1246_ _0785_ _0778_ _0782_ _0784_ VDD VSS sg13g2_o21ai_1
Xplace523 net522 afe_controller_inst.AFE_CRTL_OUTPUTS\[2\]
+ VDD VSS sg13g2_buf_1
X_1248_ _0787_ main_fsm_top_inst.spi_rx.data_rg\[7\] main_fsm_top_inst.spi_top_inst.spi_reg.bit_cell7.VALUE_OUT
+ net508 VDD VSS sg13g2_mux2_1
X_1249_ _0788_ _0785_ _0787_ VDD VSS sg13g2_nor2_1
X_1250_ _0789_ main_fsm_top_inst.MAIN_TOP_OUTPUTS\[8\] VDD
+ VSS sg13g2_inv_1
X_1251_ _0790_ main_fsm_top_inst.MAIN_TOP_OUTPUTS\[9\] VDD
+ VSS sg13g2_inv_2
X_1252_ _0791_ net516 main_fsm_top_inst.MAIN_TOP_OUTPUTS\[7\]
+ VDD VSS sg13g2_nor2_2
X_1253_ _0792_ _0789_ net497 _0791_ VDD VSS sg13g2_nand3_1
X_1254_ _0793_ _0763_ _0785_ _0792_ VDD VSS sg13g2_a21oi_1
X_1255_ _0794_ _0788_ _0793_ VDD VSS sg13g2_nor2b_1
X_1256_ _0795_ main_fsm_top_inst.MAIN_TOP_OUTPUTS\[7\] VDD
+ VSS sg13g2_inv_1
X_1257_ _0796_ _0795_ _0789_ net497 VDD VSS sg13g2_nand3_1
X_1258_ _0797_ _0795_ _0789_ _0796_ VDD VSS sg13g2_o21ai_1
X_1259_ _0798_ afe_controller_inst.CONFIG_VALID _0785_ VDD
+ VSS sg13g2_nor2_1
X_1260_ _0799_ _0789_ net497 _0798_ VDD VSS sg13g2_nor3_1
X_1261_ _0800_ _0797_ _0799_ VDD VSS sg13g2_nor2_1
X_1262_ _0801_ net516 _0794_ _0800_ VDD VSS sg13g2_nor3_1
X_1263_ _0802_ net516 _0776_ _0801_ VDD VSS sg13g2_a21o_1
X_1264_ _0803_ afe_controller_inst.CONFIG_VALUES\[3\] VDD
+ VSS sg13g2_inv_1
X_1265_ _0804_ _0636_ _0641_ VDD VSS sg13g2_nor2_1
X_1266_ _0805_ _0803_ _0659_ _0804_ VDD VSS sg13g2_a21oi_1
X_1267_ _0806_ net526 _0805_ VDD VSS sg13g2_xnor2_1
X_1268_ _0807_ _0665_ _0714_ VDD VSS sg13g2_nor2_1
X_1269_ _0808_ net516 net497 VDD VSS sg13g2_nand2_1
Xplace520 net519 afe_controller_inst.AFE_CRTL_OUTPUTS\[3\]
+ VDD VSS sg13g2_buf_1
X_1271_ _0810_ net512 net511 _0791_ _0798_ VDD VSS sg13g2_nand4_1
X_1272_ _0811_ net514 _0808_ _0810_ VDD VSS sg13g2_o21ai_1
X_1273_ _0812_ main_fsm_top_inst.MAIN_TOP_OUTPUTS\[3\] main_fsm_top_inst.spi_dout_rdy_sig
+ VDD VSS sg13g2_nand2_1
X_1274_ _0813_ main_fsm_top_inst.MAIN_TOP_OUTPUTS\[3\] VDD
+ VSS sg13g2_inv_1
X_1275_ _0814_ _0813_ _0778_ VDD VSS sg13g2_nand2_1
X_1276_ _0815_ _0812_ _0814_ main_fsm_top_inst.MAIN_TOP_OUTPUTS\[4\]
+ VDD VSS sg13g2_a21oi_1
X_1277_ _0816_ main_fsm_top_inst.MAIN_TOP_OUTPUTS\[7\] afe_controller_inst.CONFIG_VALID
+ VDD VSS sg13g2_nor2b_1
X_1278_ _0817_ net512 _0816_ net515 VDD VSS sg13g2_o21ai_1
X_1279_ _0818_ main_fsm_top_inst.MAIN_TOP_OUTPUTS\[7\] afe_controller_inst.CONFIG_VALID
+ net512 VDD VSS sg13g2_o21ai_1
X_1280_ _0819_ _0817_ _0818_ net497 VDD VSS sg13g2_a21oi_1
X_1281_ _0820_ net516 net514 VDD VSS sg13g2_nand2_1
Xclkbuf_leaf_12_CLK clknet_leaf_12_CLK clknet_3_3__leaf_CLK
+ VDD VSS sg13g2_buf_16
X_1283_ _0822_ _0775_ _0820_ main_fsm_top_inst.spi_tx.bypass_rg
+ VDD VSS sg13g2_o21ai_1
X_1284_ _0823_ main_fsm_top_inst.MAIN_TOP_OUTPUTS\[1\] VDD
+ VSS sg13g2_inv_1
X_1285_ _0824_ main_fsm_top_inst.spi_top_inst.sck_sync main_fsm_top_inst.spi_top_inst.edge_dummy
+ VDD VSS sg13g2_nand2b_1
Xplace519 net518 afe_controller_inst.AFE_CRTL_OUTPUTS\[4\]
+ VDD VSS sg13g2_buf_1
X_1287_ _0826_ _0823_ _0824_ VDD VSS sg13g2_nand2_1
X_1288_ _0827_ _0822_ _0826_ main_fsm_top_inst.MAIN_TOP_OUTPUTS\[0\]
+ VDD VSS sg13g2_o21ai_1
X_1289_ _0828_ main_fsm_top_inst.spi_top_inst.counter_module.COUNTER\[3\]
+ VDD VSS sg13g2_inv_1
X_1290_ _0829_ main_fsm_top_inst.spi_top_inst.counter_module.COUNTER\[0\]
+ main_fsm_top_inst.spi_top_inst.counter_module.COUNTER\[1\]
+ main_fsm_top_inst.spi_top_inst.counter_module.COUNTER\[2\]
+ VDD VSS sg13g2_nand3_1
X_1291_ _0830_ main_fsm_top_inst.MAIN_TOP_OUTPUTS\[1\] main_fsm_top_inst.MAIN_TOP_OUTPUTS\[0\]
+ _0828_ _0829_ VDD VSS sg13g2_nor4_1
X_1292_ _0831_ main_fsm_top_inst.spi_top_inst.edge_dummy main_fsm_top_inst.spi_top_inst.sck_sync
+ VDD VSS sg13g2_nand2b_1
X_1293_ _0832_ _0755_ _0831_ _0823_ VDD VSS sg13g2_a21oi_1
X_1294_ _0833_ main_fsm_top_inst.MAIN_TOP_OUTPUTS\[4\] VDD
+ VSS sg13g2_inv_1
Xplace518 net517 net518 VDD VSS sg13g2_buf_1
X_1296_ _0835_ main_fsm_top_inst.MAIN_TOP_OUTPUTS\[4\] net509
+ VDD VSS sg13g2_nand2b_1
X_1297_ _0836_ _0813_ _0833_ _0831_ _0835_ VDD VSS sg13g2_a22oi_1
X_1298_ _0837_ main_fsm_top_inst.MAIN_TOP_OUTPUTS\[6\] net513
+ VDD VSS sg13g2_nor2_1
X_1299_ _0838_ net520 net519 net517 VDD VSS sg13g2_o21ai_1
X_1300_ _0839_ _0795_ _0837_ _0838_ VDD VSS sg13g2_o21ai_1
X_1301_ _0840_ _0830_ _0832_ _0836_ _0839_ VDD VSS sg13g2_nor4_1
X_1302_ _0841_ _0819_ _0827_ _0840_ VDD VSS sg13g2_nand3b_1
X_1303_ _0842_ net526 _0676_ net523 VDD VSS sg13g2_a21oi_1
X_1304_ _0843_ net523 _0673_ _0842_ VDD VSS sg13g2_a21oi_1
X_1305_ _0844_ _0792_ _0785_ VDD VSS sg13g2_nor2_1
X_1306_ _0845_ _0815_ _0841_ _0843_ _0844_ VDD VSS sg13g2_or4_1
X_1307_ _0846_ net523 _0671_ _0718_ VDD VSS sg13g2_a21oi_1
X_1308_ _0847_ _0633_ _0715_ VDD VSS sg13g2_and2_1
X_1309_ _0848_ net518 _0637_ _0846_ _0847_ VDD VSS sg13g2_nor4_1
X_1310_ _0849_ afe_controller_inst.CONFIG_VALUES\[2\] _0803_
+ VDD VSS sg13g2_nor2_1
X_1311_ _0850_ net517 net523 VDD VSS sg13g2_xor2_1
X_1312_ _0851_ _0849_ _0659_ _0688_ _0850_ net519 VDD VSS
+ sg13g2_a221oi_1
X_1313_ _0852_ _0703_ net520 VDD VSS sg13g2_nand2b_1
X_1314_ _0853_ _0848_ _0851_ _0852_ VDD VSS sg13g2_o21ai_1
X_1315_ _0854_ _0807_ _0811_ _0845_ _0853_ VDD VSS sg13g2_or4_1
X_1316_ _0855_ _0806_ _0854_ VDD VSS sg13g2_nor2_1
X_1317_ _0013_ _0802_ _0855_ _0191_ VDD VSS sg13g2_a21oi_1
Xclkbuf_leaf_8_CLK clknet_leaf_8_CLK clknet_3_2__leaf_CLK
+ VDD VSS sg13g2_buf_16
X_1319_ _0014_ net553 serializer_inst.fake_adc.sipo_flip_flops\[0\]
+ VDD VSS sg13g2_nor2b_1
X_1320_ _0015_ net558 net237 VDD VSS sg13g2_nor2b_1
Xclkbuf_leaf_11_CLK clknet_leaf_11_CLK clknet_3_3__leaf_CLK
+ VDD VSS sg13g2_buf_16
X_1322_ _0858_ main_fsm_top_inst.spi_top_inst.edge_dummy main_fsm_top_inst.spi_top_inst.sck_sync
+ VDD VSS sg13g2_nor2b_1
Xplace516 net515 net516 VDD VSS sg13g2_buf_1
Xplace517 net516 main_fsm_top_inst.MAIN_TOP_OUTPUTS\[6\] VDD
+ VSS sg13g2_buf_1
X_1325_ _0861_ _0833_ _0858_ net567 VDD VSS sg13g2_o21ai_1
Xplace515 net514 main_fsm_top_inst.MAIN_TOP_OUTPUTS\[7\] VDD
+ VSS sg13g2_buf_1
X_1327_ _0863_ net567 _0778_ main_fsm_top_inst.MAIN_TOP_OUTPUTS\[3\]
+ VDD VSS sg13g2_a21oi_1
X_1328_ _0864_ main_fsm_top_inst.MAIN_TOP_OUTPUTS\[4\] net509
+ _0863_ VDD VSS sg13g2_nor3_1
X_1329_ _0865_ main_fsm_top_inst.MAIN_TOP_OUTPUTS\[3\] _0861_
+ _0864_ VDD VSS sg13g2_a21oi_1
X_1330_ _0016_ net557 _0865_ VDD VSS sg13g2_nor2_1
X_1331_ _0866_ main_fsm_top_inst.MAIN_TOP_OUTPUTS\[0\] _0778_
+ _0823_ VDD VSS sg13g2_o21ai_1
X_1332_ _0867_ _0866_ VDD VSS sg13g2_inv_1
X_1333_ _0868_ main_fsm_top_inst.spi_top_inst.sck_sync main_fsm_top_inst.spi_top_inst.edge_dummy
+ VDD VSS sg13g2_nor2b_1
Xplace513 net512 net513 VDD VSS sg13g2_buf_1
X_1335_ _0870_ main_fsm_top_inst.MAIN_TOP_OUTPUTS\[0\] _0868_
+ _0822_ VDD VSS sg13g2_a21oi_1
X_1336_ _0871_ net564 _0867_ _0870_ VDD VSS sg13g2_nand3_1
X_1337_ _0872_ net533 main_fsm_top_inst.MAIN_TOP_OUTPUTS\[0\]
+ VDD VSS sg13g2_nand2_1
Xclkbuf_leaf_7_CLK clknet_leaf_7_CLK clknet_3_2__leaf_CLK
+ VDD VSS sg13g2_buf_16
Xplace512 net511 main_fsm_top_inst.MAIN_TOP_OUTPUTS\[9\] VDD
+ VSS sg13g2_buf_1
X_1340_ _0017_ _0871_ _0872_ net562 VDD VSS sg13g2_a21oi_1
Xplace514 net513 main_fsm_top_inst.MAIN_TOP_OUTPUTS\[8\] VDD
+ VSS sg13g2_buf_1
Xplace511 net510 main_fsm_top_inst.Register_File_inst.r_addr\[0\]
+ VDD VSS sg13g2_buf_1
X_1343_ _0877_ afe_controller_inst.AFE_CRTL_OUTPUTS\[10\]
+ net502 VDD VSS sg13g2_nand2_1
Xclkbuf_leaf_6_CLK clknet_leaf_6_CLK clknet_3_2__leaf_CLK
+ VDD VSS sg13g2_buf_16
X_1345_ _0879_ net500 serializer_inst.piso.piso_flip_flops\[19\]
+ VDD VSS sg13g2_nand2b_1
X_1346_ _0018_ _0877_ _0879_ net557 VDD VSS sg13g2_a21oi_1
X_1347_ _0880_ net498 afe_controller_inst.AFE_CRTL_OUTPUTS\[9\]
+ VDD VSS sg13g2_nand2_1
X_1348_ _0881_ net500 serializer_inst.piso.piso_flip_flops\[18\]
+ VDD VSS sg13g2_nand2b_1
X_1349_ _0019_ _0880_ _0881_ net558 VDD VSS sg13g2_a21oi_1
X_1350_ _0882_ afe_controller_inst.AFE_CRTL_OUTPUTS\[8\] net498
+ VDD VSS sg13g2_nand2_1
X_1351_ _0883_ net500 serializer_inst.piso.piso_flip_flops\[17\]
+ VDD VSS sg13g2_nand2b_1
Xclkbuf_leaf_4_CLK clknet_leaf_4_CLK clknet_3_3__leaf_CLK
+ VDD VSS sg13g2_buf_16
X_1353_ _0020_ _0882_ _0883_ net558 VDD VSS sg13g2_a21oi_1
X_1354_ _0885_ net498 afe_controller_inst.AFE_CRTL_OUTPUTS\[7\]
+ VDD VSS sg13g2_nand2_1
X_1355_ _0886_ net498 serializer_inst.piso.piso_flip_flops\[16\]
+ VDD VSS sg13g2_nand2b_1
X_1356_ _0021_ _0885_ _0886_ net558 VDD VSS sg13g2_a21oi_1
X_1357_ _0887_ net498 afe_controller_inst.AFE_CRTL_OUTPUTS\[6\]
+ VDD VSS sg13g2_nand2_1
X_1358_ _0888_ net498 serializer_inst.piso.piso_flip_flops\[15\]
+ VDD VSS sg13g2_nand2b_1
X_1359_ _0022_ _0887_ _0888_ net559 VDD VSS sg13g2_a21oi_1
X_1360_ _0889_ net498 adc_ready_out_sig VDD VSS sg13g2_nand2_1
X_1361_ _0890_ net498 serializer_inst.piso.piso_flip_flops\[14\]
+ VDD VSS sg13g2_nand2b_1
X_1362_ _0023_ _0889_ _0890_ net559 VDD VSS sg13g2_a21oi_1
Xplace509 net508 net509 VDD VSS sg13g2_buf_1
X_1364_ _0892_ net518 net499 VDD VSS sg13g2_nand2_1
X_1365_ _0893_ net500 serializer_inst.piso.piso_flip_flops\[13\]
+ VDD VSS sg13g2_nand2b_1
X_1366_ _0024_ _0892_ _0893_ net559 VDD VSS sg13g2_a21oi_1
X_1367_ _0894_ afe_controller_inst.AFE_CRTL_OUTPUTS\[3\] net499
+ VDD VSS sg13g2_nand2_1
X_1368_ _0895_ net500 serializer_inst.piso.piso_flip_flops\[12\]
+ VDD VSS sg13g2_nand2b_1
X_1369_ _0025_ _0894_ _0895_ net558 VDD VSS sg13g2_a21oi_1
X_1370_ _0896_ net521 net499 VDD VSS sg13g2_nand2_1
Xclkbuf_leaf_5_CLK clknet_leaf_5_CLK clknet_3_2__leaf_CLK
+ VDD VSS sg13g2_buf_16
X_1372_ _0898_ net500 serializer_inst.piso.piso_flip_flops\[11\]
+ VDD VSS sg13g2_nand2b_1
X_1373_ _0026_ _0896_ _0898_ net559 VDD VSS sg13g2_a21oi_1
X_1374_ _0899_ afe_controller_inst.AFE_CRTL_OUTPUTS\[1\] net499
+ VDD VSS sg13g2_nand2_1
X_1375_ _0900_ net500 serializer_inst.piso.piso_flip_flops\[10\]
+ VDD VSS sg13g2_nand2b_1
X_1376_ _0027_ _0899_ _0900_ net559 VDD VSS sg13g2_a21oi_1
X_1377_ _0901_ net525 net499 VDD VSS sg13g2_nand2_1
X_1378_ _0902_ net500 serializer_inst.piso.piso_flip_flops\[9\]
+ VDD VSS sg13g2_nand2b_1
X_1379_ _0028_ _0901_ _0902_ net559 VDD VSS sg13g2_a21oi_1
X_1380_ _0903_ net511 net502 VDD VSS sg13g2_nand2_1
X_1381_ _0904_ serializer_inst.freeze_delay serializer_inst.piso.piso_flip_flops\[8\]
+ VDD VSS sg13g2_nand2b_1
X_1382_ _0029_ _0903_ _0904_ net559 VDD VSS sg13g2_a21oi_1
X_1383_ _0905_ net512 net501 VDD VSS sg13g2_nand2_1
X_1384_ _0906_ net501 serializer_inst.piso.piso_flip_flops\[7\]
+ VDD VSS sg13g2_nand2b_1
Xplace537 net536 net544 VDD VSS sg13g2_buf_1
X_1386_ _0030_ _0905_ _0906_ net560 VDD VSS sg13g2_a21oi_1
X_1387_ _0908_ main_fsm_top_inst.MAIN_TOP_OUTPUTS\[7\] net501
+ VDD VSS sg13g2_nand2_1
X_1388_ _0909_ net501 serializer_inst.piso.piso_flip_flops\[6\]
+ VDD VSS sg13g2_nand2b_1
X_1389_ _0031_ _0908_ _0909_ net561 VDD VSS sg13g2_a21oi_1
X_1390_ _0910_ net515 net501 VDD VSS sg13g2_nand2_1
X_1391_ _0911_ serializer_inst.freeze_delay serializer_inst.piso.piso_flip_flops\[5\]
+ VDD VSS sg13g2_nand2b_1
X_1392_ _0032_ _0910_ _0911_ net561 VDD VSS sg13g2_a21oi_1
X_1393_ _0912_ net502 main_fsm_top_inst.MAIN_TOP_OUTPUTS\[4\]
+ VDD VSS sg13g2_nand2_1
X_1394_ _0913_ serializer_inst.freeze_delay serializer_inst.piso.piso_flip_flops\[3\]
+ VDD VSS sg13g2_nand2b_1
X_1395_ _0033_ _0912_ _0913_ net560 VDD VSS sg13g2_a21oi_1
X_1396_ _0914_ main_fsm_top_inst.MAIN_TOP_OUTPUTS\[3\] net502
+ VDD VSS sg13g2_nand2_1
X_1397_ _0915_ net502 serializer_inst.piso.piso_flip_flops\[2\]
+ VDD VSS sg13g2_nand2b_1
X_1398_ _0034_ _0914_ _0915_ net560 VDD VSS sg13g2_a21oi_1
X_1399_ _0916_ net502 serializer_inst.piso.piso_flip_flops\[1\]
+ VDD VSS sg13g2_nor2_1
X_1400_ _0035_ net560 _0916_ VDD VSS sg13g2_nor2_1
X_1401_ _0917_ main_fsm_top_inst.MAIN_TOP_OUTPUTS\[1\] net501
+ VDD VSS sg13g2_nand2_1
X_1402_ _0918_ net501 serializer_inst.piso.piso_flip_flops\[0\]
+ VDD VSS sg13g2_nand2b_1
X_1403_ _0036_ _0917_ _0918_ net561 VDD VSS sg13g2_a21oi_1
Xplace510 net509 main_fsm_top_inst.spi_dout_rdy_sig VDD VSS
+ sg13g2_buf_1
X_1405_ _0920_ serializer_inst.fake_adc.sipo_flip_flops\[6\]
+ net503 VDD VSS sg13g2_nand2_1
X_1406_ _0921_ net503 serializer_inst.fake_adc.skid.data_rg\[6\]
+ VDD VSS sg13g2_nand2b_1
X_1407_ _0922_ afe_controller_inst.fifo_in_sel\[1\] afe_controller_inst.fifo_in_sel\[0\]
+ VDD VSS sg13g2_nand2b_1
X_1408_ _0923_ _0920_ _0921_ _0922_ VDD VSS sg13g2_a21oi_1
X_1409_ _0924_ afe_controller_inst.fifo.WE VDD VSS sg13g2_inv_1
X_1410_ _0925_ _0658_ _0653_ _0924_ VDD VSS sg13g2_a21oi_2
X_1411_ _0926_ afe_controller_inst.fifo.w_ptr\[0\] _0765_
+ VDD VSS sg13g2_nor2_1
X_1412_ _0927_ _0925_ _0926_ VDD VSS sg13g2_nand2_1
X_1413_ _0928_ net527 net556 _0927_ VDD VSS sg13g2_nor3_2
X_1414_ _0929_ _0923_ _0928_ VDD VSS sg13g2_nand2_1
X_1415_ _0930_ net527 VDD VSS sg13g2_inv_1
X_1416_ _0931_ net556 VDD VSS sg13g2_inv_1
Xplace508 net507 afe_controller_inst.CONFIG_VALID VDD VSS
+ sg13g2_buf_1
X_1418_ _0933_ _0930_ _0931_ _0925_ _0926_ VDD VSS sg13g2_nand4_1
Xclkbuf_leaf_14_CLK clknet_leaf_14_CLK clknet_3_6__leaf_CLK
+ VDD VSS sg13g2_buf_16
X_1420_ _0935_ net565 afe_controller_inst.clear net556 VDD
+ VSS sg13g2_a21oi_1
Xclkbuf_leaf_13_CLK clknet_leaf_13_CLK clknet_3_6__leaf_CLK
+ VDD VSS sg13g2_buf_16
Xclkbuf_leaf_19_CLK clknet_leaf_19_CLK clknet_3_7__leaf_CLK
+ VDD VSS sg13g2_buf_16
X_1423_ _0938_ afe_controller_inst.fifo.mem\[0\]\[6\] net482
+ net490 VDD VSS sg13g2_nand3_1
X_1424_ _0037_ _0929_ _0938_ VDD VSS sg13g2_nand2_1
X_1425_ _0939_ serializer_inst.fake_adc.sipo_flip_flops\[5\]
+ net503 VDD VSS sg13g2_nand2_1
X_1426_ _0940_ net503 serializer_inst.fake_adc.skid.data_rg\[5\]
+ VDD VSS sg13g2_nand2b_1
X_1427_ _0941_ _0939_ _0940_ _0922_ VDD VSS sg13g2_a21oi_1
X_1428_ _0942_ _0928_ _0941_ VDD VSS sg13g2_nand2_1
X_1429_ _0943_ afe_controller_inst.fifo.mem\[0\]\[5\] net482
+ net490 VDD VSS sg13g2_nand3_1
X_1430_ _0038_ _0942_ _0943_ VDD VSS sg13g2_nand2_1
X_1431_ _0944_ serializer_inst.fake_adc.sipo_flip_flops\[4\]
+ net503 VDD VSS sg13g2_nand2_1
X_1432_ _0945_ net503 serializer_inst.fake_adc.skid.data_rg\[4\]
+ VDD VSS sg13g2_nand2b_1
X_1433_ _0946_ _0944_ _0945_ _0922_ VDD VSS sg13g2_a21oi_1
X_1434_ _0947_ _0928_ _0946_ VDD VSS sg13g2_nand2_1
X_1435_ _0948_ afe_controller_inst.fifo.mem\[0\]\[4\] net482
+ net490 VDD VSS sg13g2_nand3_1
X_1436_ _0039_ _0947_ _0948_ VDD VSS sg13g2_nand2_1
X_1437_ _0949_ serializer_inst.fake_adc.sipo_flip_flops\[3\]
+ net504 VDD VSS sg13g2_nand2_1
X_1438_ _0950_ net504 serializer_inst.fake_adc.skid.data_rg\[3\]
+ VDD VSS sg13g2_nand2b_1
X_1439_ _0951_ _0949_ _0950_ _0922_ VDD VSS sg13g2_a21oi_1
X_1440_ _0952_ _0928_ _0951_ VDD VSS sg13g2_nand2_1
X_1441_ _0953_ afe_controller_inst.fifo.mem\[0\]\[3\] net482
+ net492 VDD VSS sg13g2_nand3_1
X_1442_ _0040_ _0952_ _0953_ VDD VSS sg13g2_nand2_1
X_1443_ _0954_ serializer_inst.fake_adc.sipo_flip_flops\[2\]
+ net504 VDD VSS sg13g2_nand2_1
X_1444_ _0955_ net504 serializer_inst.fake_adc.skid.data_rg\[2\]
+ VDD VSS sg13g2_nand2b_1
X_1445_ _0956_ _0954_ _0955_ _0922_ VDD VSS sg13g2_a21oi_1
X_1446_ _0957_ _0928_ _0956_ VDD VSS sg13g2_nand2_1
X_1447_ _0958_ afe_controller_inst.fifo.mem\[0\]\[2\] net482
+ net492 VDD VSS sg13g2_nand3_1
X_1448_ _0041_ _0957_ _0958_ VDD VSS sg13g2_nand2_1
X_1449_ _0959_ afe_controller_inst.fifo_in_sel\[1\] afe_controller_inst.fifo_in_sel\[0\]
+ VDD VSS sg13g2_nor2b_1
X_1450_ _0960_ afe_controller_inst.fifo_in_sel\[0\] afe_controller_inst.fifo_in_sel\[1\]
+ VDD VSS sg13g2_nor2b_1
X_1451_ _0961_ serializer_inst.fake_adc.sipo_flip_flops\[1\]
+ _0959_ _0960_ serializer_inst.fake_adc.sipo_flip_flops\[9\]
+ VDD VSS sg13g2_a22oi_1
X_1452_ _0962_ serializer_inst.fake_adc.skid.data_rg\[1\]
+ _0959_ _0960_ serializer_inst.fake_adc.skid.data_rg\[9\] net504
+ VDD VSS sg13g2_a221oi_1
X_1453_ _0963_ net504 _0961_ _0962_ VDD VSS sg13g2_a21o_1
Xclkbuf_leaf_10_CLK clknet_leaf_10_CLK clknet_3_3__leaf_CLK
+ VDD VSS sg13g2_buf_16
X_1455_ _0965_ afe_controller_inst.fifo.mem\[0\]\[1\] _0933_
+ net489 VDD VSS sg13g2_nand3_1
X_1456_ _0042_ _0933_ _0963_ _0965_ VDD VSS sg13g2_o21ai_1
X_1457_ _0966_ serializer_inst.fake_adc.skid.data_rg\[0\]
+ serializer_inst.fake_adc.sipo_flip_flops\[0\] serializer_inst.fake_adc.skid.bypass_rg
+ VDD VSS sg13g2_mux2_1
X_1458_ _0967_ serializer_inst.fake_adc.skid.data_rg\[8\]
+ serializer_inst.fake_adc.sipo_flip_flops\[8\] net504 VDD VSS
+ sg13g2_mux2_1
X_1459_ _0968_ _0959_ _0966_ _0967_ _0960_ VDD VSS sg13g2_a22oi_1
X_1460_ _0969_ afe_controller_inst.fifo.mem\[0\]\[0\] net482
+ _0935_ VDD VSS sg13g2_nand3_1
X_1461_ _0043_ net482 _0968_ _0969_ VDD VSS sg13g2_o21ai_1
X_1462_ _0970_ afe_controller_inst.fifo.w_ptr\[0\] _0925_
+ VDD VSS sg13g2_nand2_2
X_1463_ _0971_ net527 net556 _0765_ _0970_ VDD VSS sg13g2_nor4_2
X_1464_ _0972_ _0923_ _0971_ VDD VSS sg13g2_nand2_1
Xclkbuf_leaf_9_CLK clknet_leaf_9_CLK clknet_3_2__leaf_CLK
+ VDD VSS sg13g2_buf_16
X_1466_ _0974_ net527 net556 _0765_ _0970_ VDD VSS sg13g2_or4_1
Xplace507 net506 main_fsm_top_inst.spi_tx.bypass_rg VDD VSS
+ sg13g2_buf_1
X_1468_ _0976_ afe_controller_inst.fifo.mem\[1\]\[6\] net491
+ net476 VDD VSS sg13g2_nand3_1
X_1469_ _0044_ _0972_ _0976_ VDD VSS sg13g2_nand2_1
X_1470_ _0977_ _0941_ _0971_ VDD VSS sg13g2_nand2_1
X_1471_ _0978_ afe_controller_inst.fifo.mem\[1\]\[5\] net491
+ net476 VDD VSS sg13g2_nand3_1
X_1472_ _0045_ _0977_ _0978_ VDD VSS sg13g2_nand2_1
X_1473_ _0979_ _0946_ _0971_ VDD VSS sg13g2_nand2_1
X_1474_ _0980_ afe_controller_inst.fifo.mem\[1\]\[4\] net490
+ net476 VDD VSS sg13g2_nand3_1
X_1475_ _0046_ _0979_ _0980_ VDD VSS sg13g2_nand2_1
X_1476_ _0981_ _0951_ _0971_ VDD VSS sg13g2_nand2_1
X_1477_ _0982_ afe_controller_inst.fifo.mem\[1\]\[3\] net492
+ net476 VDD VSS sg13g2_nand3_1
X_1478_ _0047_ _0981_ _0982_ VDD VSS sg13g2_nand2_1
X_1479_ _0983_ _0956_ _0971_ VDD VSS sg13g2_nand2_1
X_1480_ _0984_ afe_controller_inst.fifo.mem\[1\]\[2\] net492
+ net476 VDD VSS sg13g2_nand3_1
X_1481_ _0048_ _0983_ _0984_ VDD VSS sg13g2_nand2_1
X_1482_ _0985_ afe_controller_inst.fifo.mem\[1\]\[1\] net489