* Extracted by KLayout with SG13G2 LVS runset on : 28/03/2026 23:07

.SUBCKT digital_block_top VSS VDD ADC_INPUT ADC_INPUT_VALID RESET FREEZE CLK
+ SCAN_VALID SCAN_OUT SCK MOSI MISO CS DATA_READY
X$459 VDD VSS sg13g2_decap_8
X$460 VDD VSS sg13g2_decap_8
X$461 VDD VSS sg13g2_decap_8
X$462 VDD VSS sg13g2_decap_8
X$465 VDD VSS sg13g2_decap_8
X$466 VDD VSS sg13g2_decap_8
X$467 VDD VSS sg13g2_decap_8
X$468 VDD VSS sg13g2_decap_8
X$469 VDD VSS sg13g2_decap_8
X$470 VDD VSS sg13g2_decap_8
X$471 VDD VSS sg13g2_decap_4
X$472 \$42 VDD VSS sg13g2_tiehi
X$473 VDD VSS sg13g2_decap_8
X$474 VDD VSS sg13g2_decap_8
X$475 VDD VSS sg13g2_decap_8
X$476 VDD VSS sg13g2_decap_8
X$477 VDD VSS sg13g2_decap_8
X$479 \$44 VDD VSS sg13g2_tiehi
X$480 VDD VSS sg13g2_decap_8
X$481 VDD VSS sg13g2_decap_8
X$482 VDD VSS sg13g2_decap_8
X$483 VDD VSS sg13g2_decap_8
X$484 VDD VSS sg13g2_decap_8
X$485 VDD VSS sg13g2_decap_8
X$486 VDD VSS sg13g2_decap_8
X$487 VDD VSS sg13g2_decap_8
X$488 VDD VSS sg13g2_decap_8
X$489 VDD VSS sg13g2_decap_8
X$492 VDD VSS sg13g2_decap_8
X$493 VDD VSS sg13g2_decap_8
X$496 \$48 VDD VSS sg13g2_tiehi
X$497 VDD VSS sg13g2_decap_8
X$498 VDD VSS sg13g2_decap_8
X$499 VDD VSS sg13g2_decap_8
X$500 VDD VSS sg13g2_decap_8
X$501 VDD VSS sg13g2_decap_8
X$502 VDD VSS sg13g2_decap_8
X$503 VDD VSS sg13g2_decap_4
X$505 \$18 VDD VSS sg13g2_tiehi
X$506 VDD VSS sg13g2_decap_8
X$507 VDD VSS sg13g2_decap_8
X$508 VDD VSS sg13g2_decap_8
X$509 VDD VSS sg13g2_decap_8
X$510 VDD VSS sg13g2_decap_8
X$511 VDD VSS sg13g2_decap_8
X$514 \$92 VDD VSS sg13g2_tiehi
X$515 VDD VSS sg13g2_decap_8
X$516 VDD VSS sg13g2_decap_8
X$517 VDD VSS sg13g2_decap_8
X$518 VDD VSS sg13g2_decap_8
X$519 VDD VSS sg13g2_decap_8
X$522 VDD VSS sg13g2_decap_4
X$524 \$91 VDD VSS sg13g2_tiehi
X$525 VDD VSS sg13g2_decap_8
X$526 VDD VSS sg13g2_decap_8
X$527 VDD VSS sg13g2_decap_8
X$530 VDD VSS \$20 \$52 \$19 sg13g2_nand2_1
X$531 \$88 VSS \$108 VDD \$20 \$21 sg13g2_a21oi_1
X$532 VDD VSS sg13g2_decap_8
X$533 VDD VSS sg13g2_decap_4
X$535 \$22 VDD VSS sg13g2_tiehi
X$536 VDD VSS sg13g2_decap_8
X$537 VDD VSS sg13g2_decap_8
X$538 VDD VSS sg13g2_decap_8
X$541 \$23 VDD VSS sg13g2_tiehi
X$542 VDD VSS sg13g2_decap_8
X$543 VDD VSS sg13g2_decap_8
X$544 VDD VSS sg13g2_decap_8
X$545 VDD VSS sg13g2_decap_4
X$547 \$24 VDD VSS sg13g2_tiehi
X$548 VSS \$24 \$38 \$25 \$65 VDD sg13g2_dfrbpq_1
X$549 VDD VSS sg13g2_decap_8
X$550 VDD VSS sg13g2_decap_8
X$553 VDD VSS sg13g2_decap_4
X$554 \$53 VDD VSS sg13g2_tiehi
X$555 VDD VSS sg13g2_decap_8
X$556 VDD VSS sg13g2_decap_8
X$557 VDD VSS sg13g2_decap_8
X$559 \$54 VDD VSS sg13g2_tiehi
X$560 VDD VSS sg13g2_decap_8
X$561 VDD VSS sg13g2_decap_8
X$562 VDD VSS sg13g2_decap_8
X$563 VDD VSS sg13g2_decap_8
X$564 VDD VSS sg13g2_decap_8
X$565 VDD VSS sg13g2_decap_8
X$567 \$26 VDD VSS sg13g2_tiehi
X$568 VDD VSS sg13g2_decap_8
X$569 VDD VSS sg13g2_decap_8
X$570 VDD VSS sg13g2_decap_8
X$571 VDD VSS sg13g2_decap_8
X$572 VDD VSS sg13g2_decap_4
X$573 \$27 VDD VSS sg13g2_tiehi
X$574 VDD VSS sg13g2_decap_8
X$575 VDD VSS sg13g2_decap_8
X$576 VDD VSS sg13g2_decap_8
X$577 VDD VSS sg13g2_decap_8
X$578 VDD VSS sg13g2_decap_4
X$579 VSS \$60 VDD ADC_INPUT sg13g2_buf_1
X$582 \$80 VDD VSS sg13g2_tiehi
X$583 VDD VSS sg13g2_decap_8
X$584 VDD VSS sg13g2_decap_8
X$585 VDD VSS sg13g2_decap_8
X$586 VDD VSS sg13g2_decap_8
X$587 VDD VSS sg13g2_decap_8
X$588 VDD VSS sg13g2_decap_8
X$590 VDD VSS sg13g2_decap_8
X$591 VDD VSS sg13g2_decap_8
X$592 VDD VSS sg13g2_decap_8
X$593 VDD VSS sg13g2_decap_8
X$597 VDD VSS sg13g2_decap_8
X$598 VDD VSS sg13g2_decap_8
X$599 VDD VSS sg13g2_decap_8
X$600 VDD VSS sg13g2_decap_8
X$601 VDD VSS sg13g2_decap_8
X$602 VDD VSS sg13g2_decap_8
X$604 VSS \$42 \$96 \$85 \$97 VDD sg13g2_dfrbpq_1
X$606 VSS VDD \$85 \$130 \$72 sg13g2_nor2b_1
X$607 \$43 VDD VSS sg13g2_tiehi
X$609 VDD VSS sg13g2_decap_4
X$611 VSS \$44 \$72 \$133 \$97 VDD sg13g2_dfrbpq_1
X$613 VDD VSS sg13g2_decap_4
X$615 VSS VDD \$133 \$130 \$74 sg13g2_nor2b_1
X$617 VDD VSS \$101 \$74 \$134 sg13g2_nand2_1
X$618 \$46 VSS \$176 VDD \$101 \$45 sg13g2_a21oi_1
X$619 VSS \$206 \$47 \$46 \$97 VDD sg13g2_dfrbpq_1
X$623 VDD VSS \$176 \$47 \$103 sg13g2_nand2_1
X$624 VDD VSS sg13g2_decap_8
X$625 VDD VSS sg13g2_decap_4
X$627 VSS \$48 \$49 \$139 \$140 VDD sg13g2_dfrbpq_1
X$629 VDD VSS sg13g2_decap_8
X$630 VDD VSS sg13g2_decap_4
X$632 VDD VSS \$75 \$49 \$134 sg13g2_nand2_1
X$633 \$50 VSS \$93 VDD \$75 \$21 sg13g2_a21oi_1
X$634 VSS \$18 \$143 \$50 \$142 VDD sg13g2_dfrbpq_1
X$638 VDD VSS \$93 \$143 \$103 sg13g2_nand2_1
X$639 VDD VSS sg13g2_decap_8
X$640 VDD VSS sg13g2_decap_8
X$641 VSS VDD \$51 \$21 \$49 sg13g2_nor2b_1
X$642 VSS \$92 \$147 \$51 \$142 VDD sg13g2_dfrbpq_1
X$644 VDD VSS sg13g2_decap_8
X$645 VDD VSS sg13g2_decap_8
X$649 VDD VSS sg13g2_decap_4
X$650 VSS \$91 \$261 \$149 \$106 VDD sg13g2_dfrbpq_1
X$652 VSS VDD \$149 \$21 \$52 sg13g2_nor2b_1
X$657 VDD VSS \$108 \$107 \$150 sg13g2_nand2_1
X$661 VSS \$250 \$265 \$52 \$107 VDD sg13g2_mux2_1
X$663 VSS \$22 \$107 \$88 \$106 VDD sg13g2_dfrbpq_1
X$667 VSS \$23 \$52 \$56 \$106 VDD sg13g2_dfrbpq_1
X$669 VDD VSS sg13g2_decap_8
X$670 VDD VSS sg13g2_decap_4
X$675 \$76 VDD VSS sg13g2_tiehi
X$677 VSS \$76 \$215 \$151 \$65 VDD sg13g2_dfrbpq_1
X$684 VDD VSS sg13g2_decap_8
X$689 VSS \$53 \$83 \$190 \$65 VDD sg13g2_dfrbpq_1
X$691 VSS \$54 \$182 \$154 \$115 VDD sg13g2_dfrbpq_1
X$695 VDD VSS \$182 \$152 \$79 sg13g2_nand2b_1
X$697 VDD VSS \$63 \$152 \$83 sg13g2_nand2_1
X$699 \$55 VSS \$79 VDD \$113 \$153 sg13g2_a21oi_1
X$701 VSS \$26 \$116 \$55 \$115 VDD sg13g2_dfrbpq_1
X$704 VDD VSS \$116 \$152 \$174 sg13g2_nand2b_1
X$705 \$121 VSS \$174 VDD \$63 \$156 sg13g2_a21oi_1
X$707 VSS \$27 \$227 \$121 \$159 VDD sg13g2_dfrbpq_1
X$709 VSS VDD \$56 \$156 \$60 sg13g2_nor2b_1
X$711 VDD VSS sg13g2_decap_8
X$717 VSS \$80 \$158 \$117 \$159 VDD sg13g2_dfrbpq_1
X$721 VDD VSS sg13g2_decap_8
X$722 VDD VSS sg13g2_decap_8
X$723 VDD VSS sg13g2_decap_8
X$725 VDD VSS sg13g2_decap_8
X$726 VDD VSS sg13g2_decap_8
X$727 VDD VSS sg13g2_decap_8
X$728 VDD VSS sg13g2_decap_8
X$731 VDD VSS sg13g2_decap_8
X$732 VDD VSS sg13g2_decap_8
X$734 \$198 VDD VSS sg13g2_tiehi
X$735 VDD VSS sg13g2_decap_8
X$736 VDD VSS sg13g2_decap_8
X$737 VDD VSS sg13g2_decap_8
X$738 \$166 VSS \$338 VDD \$234 \$130 sg13g2_a21oi_1
X$741 VDD VSS sg13g2_decap_4
X$743 VDD VSS \$234 \$96 \$134 sg13g2_nand2_1
X$744 VDD VSS sg13g2_decap_8
X$746 VDD VSS sg13g2_decap_8
X$748 VSS \$97 VDD sg13g2_buf_8
X$760 VSS \$97 \$720 VDD sg13g2_buf_16
X$768 VDD VSS sg13g2_decap_8
X$771 VDD VSS sg13g2_decap_8
X$778 VSS \$45 VDD \$130 sg13g2_buf_1
X$783 VDD VSS sg13g2_decap_4
X$790 \$206 VDD VSS sg13g2_tiehi
X$793 VDD VSS sg13g2_decap_8
X$796 VDD VSS \$136 \$74 \$207 sg13g2_nand2_1
X$799 \$782 VSS \$138 VDD \$136 \$432 sg13g2_a21oi_1
X$800 VDD VSS \$47 \$207 \$138 sg13g2_nand2b_1
X$803 VDD VSS sg13g2_decap_8
X$809 VDD VSS sg13g2_decap_8
X$810 VDD VSS sg13g2_decap_8
X$812 VDD VSS sg13g2_decap_8
X$816 VSS \$257 \$74 \$210 \$142 VDD sg13g2_dfrbpq_1
X$820 VDD VSS sg13g2_decap_8
X$828 VDD VSS sg13g2_decap_8
X$833 VDD VSS sg13g2_decap_8
X$838 \$334 VDD VSS sg13g2_tiehi
X$840 VDD VSS sg13g2_decap_8
X$841 VDD VSS sg13g2_decap_8
X$846 VDD VSS sg13g2_decap_4
X$848 VSS \$214 \$207 \$49 \$143 VDD sg13g2_mux2_1
X$850 VDD VSS sg13g2_decap_8
X$855 VDD VSS sg13g2_decap_8
X$859 \$145 VSS VDD \$250 \$297 \$214 \$262 sg13g2_a22oi_1
X$861 VSS VDD \$297 \$148 \$215 sg13g2_nor2b_1
X$862 VSS VDD \$262 \$215 \$148 sg13g2_nor2b_1
X$863 VDD VSS \$148 \$215 \$432 sg13g2_nand2b_1
X$865 VDD VSS sg13g2_decap_8
X$866 VDD VSS sg13g2_decap_8
X$869 VDD VSS sg13g2_decap_8
X$873 VDD VSS sg13g2_decap_8
X$874 VDD VSS sg13g2_decap_8
X$876 VDD VSS sg13g2_decap_8
X$878 VDD VSS sg13g2_decap_8
X$885 VDD VSS sg13g2_decap_8
X$892 VDD VSS sg13g2_decap_8
X$898 VDD VSS sg13g2_decap_8
X$902 VDD VSS sg13g2_decap_8
X$905 VDD VSS sg13g2_decap_8
X$906 VDD VSS sg13g2_decap_8
X$913 VDD VSS sg13g2_decap_8
X$917 VDD VSS sg13g2_decap_8
X$918 VDD VSS sg13g2_decap_8
X$921 VDD VSS sg13g2_decap_8
X$924 VDD VSS sg13g2_decap_8
X$925 VDD VSS sg13g2_decap_8
X$926 VDD VSS sg13g2_decap_8
X$930 VDD VSS sg13g2_decap_8
X$933 VDD VSS sg13g2_decap_8
X$935 VDD VSS sg13g2_decap_8
X$936 VDD VSS sg13g2_decap_8
X$940 VSS \$221 VDD \$190 \$354 \$358 \$517 \$270 sg13g2_a221oi_1
X$942 VDD VSS sg13g2_decap_8
X$944 VDD VSS sg13g2_decap_8
X$946 VDD VSS sg13g2_decap_8
X$947 VDD VSS sg13g2_decap_8
X$951 VDD VSS sg13g2_decap_8
X$953 VDD VSS sg13g2_decap_8
X$955 VDD VSS sg13g2_decap_8
X$956 VDD VSS sg13g2_decap_8
X$962 VDD VSS sg13g2_decap_8
X$971 VDD VSS \$113 \$152 \$223 sg13g2_nand2_1
X$975 VDD VSS sg13g2_decap_8
X$984 VDD VSS sg13g2_decap_8
X$985 VDD VSS sg13g2_decap_8
X$987 VDD VSS \$155 \$152 \$38 sg13g2_nand2_1
X$988 VDD VSS sg13g2_decap_8
X$992 VDD VSS sg13g2_decap_8
X$1002 VDD VSS sg13g2_decap_8
X$1006 VDD VSS sg13g2_decap_8
X$1007 VDD VSS sg13g2_decap_8
X$1009 VDD VSS sg13g2_decap_8
X$1012 \$117 VSS \$226 VDD \$362 \$156 sg13g2_a21oi_1
X$1018 VDD VSS \$227 \$229 \$226 sg13g2_nand2b_1
X$1025 \$272 VSS \$228 VDD \$155 \$156 sg13g2_a21oi_1
X$1027 VDD VSS sg13g2_decap_4
X$1028 VDD VSS \$158 \$229 \$228 sg13g2_nand2b_1
X$1030 VDD VSS sg13g2_decap_8
X$1031 VDD VSS sg13g2_decap_8
X$1033 VDD VSS sg13g2_decap_8
X$1034 VDD VSS sg13g2_decap_8
X$1035 VDD VSS sg13g2_decap_4
X$1037 VDD VSS sg13g2_decap_8
X$1038 VDD VSS sg13g2_decap_8
X$1039 VDD VSS sg13g2_decap_8
X$1040 VDD VSS sg13g2_decap_8
X$1044 VDD VSS sg13g2_decap_8
X$1045 VDD VSS sg13g2_decap_4
X$1047 VSS \$198 \$337 \$166 \$97 VDD sg13g2_dfrbpq_1
X$1051 VDD VSS \$338 \$337 \$103 sg13g2_nand2_1
X$1055 VDD VSS sg13g2_decap_8
X$1060 VDD VSS sg13g2_decap_8
X$1065 VDD VSS sg13g2_decap_8
X$1070 VSS VDD \$256 \$130 \$96 sg13g2_nor2b_1
X$1072 VSS \$43 \$339 \$256 \$97 VDD sg13g2_dfrbpq_1
X$1080 VSS VDD \$283 \$130 \$339 sg13g2_nor2b_1
X$1084 \$289 VDD VSS sg13g2_tiehi
X$1085 VSS \$289 \$341 \$283 \$140 VDD sg13g2_dfrbpq_1
X$1093 VDD VSS sg13g2_decap_8
X$1094 VDD VSS sg13g2_decap_8
X$1103 VDD VSS sg13g2_decap_8
X$1112 VDD VSS sg13g2_decap_8
X$1113 VDD VSS sg13g2_decap_4
X$1115 VSS VDD \$139 \$45 \$341 sg13g2_nor2b_1
X$1116 VDD VSS sg13g2_decap_8
X$1119 VSS VDD \$210 \$45 \$343 sg13g2_nor2b_1
X$1121 \$257 VDD VSS sg13g2_tiehi
X$1123 VDD VSS sg13g2_decap_8
X$1124 VDD VSS sg13g2_decap_8
X$1127 VDD VSS sg13g2_decap_4
X$1129 VSS \$21 VDD \$45 sg13g2_buf_1
X$1132 VDD VSS sg13g2_decap_8
X$1133 VDD VSS sg13g2_decap_8
X$1136 VSS \$334 \$343 \$301 \$142 VDD sg13g2_dfrbpq_1
X$1143 VDD VSS sg13g2_decap_8
X$1149 VSS VDD \$301 \$21 \$261 sg13g2_nor2b_1
X$1150 VDD VSS sg13g2_decap_8
X$1151 VDD VSS \$785 \$424 \$207 \$347 sg13g2_a21o_1
X$1157 \$347 VSS VDD \$262 \$147 \$297 \$261 sg13g2_a22oi_1
X$1169 VDD VSS \$389 \$147 \$134 sg13g2_nand2_1
X$1174 VSS \$134 VDD \$19 sg13g2_buf_1
X$1181 VDD VSS sg13g2_decap_8
X$1183 VDD VSS sg13g2_decap_8
X$1188 VSS \$103 VDD \$150 sg13g2_buf_1
X$1190 \$263 VSS \$501 VDD \$264 \$21 sg13g2_a21oi_1
X$1191 VDD VSS \$264 \$261 \$19 sg13g2_nand2_1
X$1192 VDD VSS sg13g2_decap_8
X$1193 VDD VSS sg13g2_decap_8
X$1194 VSS \$207 VDD \$265 sg13g2_buf_1
X$1195 VDD VSS sg13g2_decap_8
X$1196 VDD VSS sg13g2_decap_4
X$1197 \$266 VDD VSS sg13g2_tiehi
X$1198 VSS \$266 \$148 \$383 \$106 VDD sg13g2_dfrbpq_1
X$1202 VDD VSS sg13g2_decap_8
X$1203 VDD VSS sg13g2_decap_8
X$1204 VDD VSS sg13g2_decap_8
X$1205 VDD VSS sg13g2_decap_8
X$1206 VDD VSS sg13g2_decap_8
X$1207 VDD VSS sg13g2_decap_4
X$1209 VDD VSS \$285 \$353 \$270 sg13g2_nand2_1
X$1210 VDD VSS \$354 \$356 \$317 sg13g2_nand2b_1
X$1211 \$25 VSS VDD \$269 \$285 \$318 \$317 sg13g2_a22oi_1
X$1212 VDD VSS sg13g2_decap_8
X$1213 VDD VSS sg13g2_decap_4
X$1214 VSS \$593 VDD \$269 \$356 \$416 sg13g2_o21ai_1
X$1216 VDD VSS \$65 \$I36198 sg13g2_inv_4
X$1221 VSS \$65 \$765 VDD sg13g2_buf_16
X$1228 VDD VSS sg13g2_decap_8
X$1229 VDD VSS sg13g2_decap_8
X$1231 VDD VSS sg13g2_decap_8
X$1232 VDD VSS sg13g2_decap_8
X$1233 VDD VSS sg13g2_decap_8
X$1234 VDD VSS sg13g2_decap_8
X$1236 VDD VSS sg13g2_decap_4
X$1239 \$154 VSS \$276 VDD \$320 \$153 sg13g2_a21oi_1
X$1246 VDD VSS sg13g2_decap_8
X$1248 VDD VSS sg13g2_decap_8
X$1249 VDD VSS sg13g2_decap_8
X$1250 VDD VSS sg13g2_decap_8
X$1256 VDD VSS sg13g2_decap_8
X$1257 VSS \$156 VDD \$153 sg13g2_buf_1
X$1258 VDD VSS \$361 \$152 \$276 sg13g2_nand2b_1
X$1259 VDD VSS sg13g2_decap_4
X$1261 VDD VSS \$362 \$323 \$152 sg13g2_nand2_1
X$1262 VDD VSS sg13g2_decap_8
X$1263 VDD VSS sg13g2_decap_8
X$1265 VDD VSS sg13g2_decap_8
X$1277 \$324 VDD VSS sg13g2_tiehi
X$1283 VSS \$324 \$461 \$272 \$159 VDD sg13g2_dfrbpq_1
X$1298 VDD VSS sg13g2_decap_8
X$1299 VDD VSS sg13g2_decap_8
X$1300 VDD VSS sg13g2_decap_8
X$1525 VDD VSS sg13g2_decap_8
X$1526 VDD VSS sg13g2_decap_8
X$1527 VDD VSS sg13g2_decap_8
X$1528 VDD VSS sg13g2_decap_8
X$1530 VDD VSS sg13g2_decap_8
X$1531 VDD VSS sg13g2_decap_8
X$1532 VDD VSS sg13g2_decap_8
X$1533 VDD VSS sg13g2_decap_8
X$1534 VDD VSS sg13g2_decap_8
X$1535 VDD VSS sg13g2_decap_8
X$1537 VDD VSS \$337 \$431 \$433 sg13g2_nand2b_1
X$1539 \$610 VSS \$433 VDD \$478 \$432 sg13g2_a21oi_1
X$1542 VDD VSS \$478 \$96 \$431 sg13g2_nand2_1
X$1543 VDD VSS sg13g2_decap_8
X$1544 VDD VSS sg13g2_decap_8
X$1545 VDD VSS sg13g2_decap_8
X$1546 VDD VSS sg13g2_decap_4
X$1548 VDD VSS \$385 \$72 \$134 sg13g2_nand2_1
X$1549 VDD VSS sg13g2_decap_8
X$1550 VDD VSS sg13g2_decap_8
X$1552 VDD VSS \$484 \$72 \$431 sg13g2_nand2_1
X$1553 VDD VSS sg13g2_decap_8
X$1554 VDD VSS sg13g2_decap_8
X$1556 VDD VSS \$726 \$341 \$431 sg13g2_nand2_1
X$1559 VSS \$431 VDD \$207 sg13g2_buf_1
X$1560 VDD VSS sg13g2_decap_8
X$1561 VDD VSS sg13g2_decap_8
X$1562 VDD VSS sg13g2_decap_4
X$1565 VDD VSS \$386 \$341 \$134 sg13g2_nand2_1
X$1566 \$733 VSS \$387 VDD \$386 \$45 sg13g2_a21oi_1
X$1567 VDD VSS \$387 \$490 \$103 sg13g2_nand2_1
X$1568 VDD VSS sg13g2_decap_8
X$1569 VDD VSS sg13g2_decap_8
X$1570 VDD VSS sg13g2_decap_8
X$1571 VDD VSS sg13g2_decap_8
X$1572 VDD VSS sg13g2_decap_4
X$1573 VDD VSS \$492 \$343 \$207 sg13g2_nand2_1
X$1574 VDD VSS sg13g2_decap_4
X$1576 VDD VSS \$561 \$343 \$134 sg13g2_nand2_1
X$1577 \$417 VSS \$663 VDD \$561 \$45 sg13g2_a21oi_1
X$1578 VDD VSS sg13g2_decap_8
X$1579 VDD VSS sg13g2_decap_8
X$1580 VDD VSS sg13g2_decap_8
X$1581 VDD VSS sg13g2_decap_8
X$1582 VDD VSS sg13g2_decap_8
X$1583 VDD VSS sg13g2_decap_4
X$1584 VDD VSS \$142 \$I35506 sg13g2_inv_1
X$1585 VSS \$142 \$789 VDD sg13g2_buf_16
X$1588 VSS \$297 VDD \$424 \$499 \$207 \$570 \$262 sg13g2_a221oi_1
X$1589 VDD VSS sg13g2_decap_8
X$1590 VDD VSS sg13g2_decap_8
X$1591 VDD VSS sg13g2_decap_8
X$1593 \$500 VDD VSS sg13g2_tiehi
X$1594 VSS \$500 \$570 \$263 \$106 VDD sg13g2_dfrbpq_1
X$1595 VDD VSS sg13g2_decap_4
X$1597 VDD VSS \$265 \$444 \$445 \$19 sg13g2_and3_1
X$1598 VDD VSS sg13g2_decap_8
X$1599 VDD VSS sg13g2_decap_8
X$1602 VDD VSS \$394 \$445 sg13g2_inv_1
X$1603 VDD VSS sg13g2_decap_8
X$1604 VDD VSS sg13g2_decap_8
X$1605 VDD VSS sg13g2_decap_8
X$1606 VDD VSS sg13g2_decap_8
X$1608 VSS \$444 VDD ADC_INPUT_VALID sg13g2_buf_1
X$1609 VDD VSS sg13g2_decap_8
X$1610 \$503 VSS VDD \$269 \$506 \$318 \$448 sg13g2_a22oi_1
X$1611 VDD VSS \$420 \$451 \$318 sg13g2_nor2_1
X$1613 VDD VSS \$270 \$448 \$510 sg13g2_nand2b_1
X$1614 VSS \$510 VDD \$151 \$318 \$421 \$420 \$515 sg13g2_a221oi_1
X$1615 VDD VSS \$451 \$354 \$517 \$518 \$421 sg13g2_nor4_1
X$1617 VSS \$393 VDD \$453 \$506 \$354 sg13g2_o21ai_1
X$1619 VSS \$553 VDD \$593 \$393 \$420 sg13g2_o21ai_1
X$1621 VDD VSS \$634 \$453 \$358 sg13g2_nor2_1
X$1624 VSS \$221 VDD \$420 \$356 \$451 sg13g2_o21ai_1
X$1626 VDD VSS \$451 \$356 \$416 \$517 \$560 sg13g2_or4_1
X$1627 VDD VSS sg13g2_decap_8
X$1629 VSS \$410 VDD \$560 \$420 \$531 sg13g2_o21ai_1
X$1630 VDD VSS sg13g2_decap_8
X$1631 VDD VSS sg13g2_decap_8
X$1632 \$559 VDD VSS sg13g2_tiehi
X$1633 VSS \$559 \$394 \$410 \$115 VDD sg13g2_dfrbpq_1
X$1634 VDD VSS \$320 \$152 \$394 sg13g2_nand2_1
X$1635 VDD VSS sg13g2_decap_4
X$1637 \$545 VDD VSS sg13g2_tiehi
X$1638 VSS \$545 \$323 \$553 \$115 VDD sg13g2_dfrbpq_1
X$1639 VDD VSS sg13g2_decap_8
X$1642 VSS \$152 VDD \$909 sg13g2_buf_1
X$1643 \$395 VDD VSS sg13g2_tiehi
X$1644 VSS \$395 \$361 \$690 \$159 VDD sg13g2_dfrbpq_1
X$1646 VDD VSS sg13g2_decap_8
X$1649 VDD VSS \$461 \$229 \$397 sg13g2_nand2b_1
X$1650 VDD VSS sg13g2_decap_8
X$1651 VDD VSS sg13g2_decap_8
X$1652 VDD VSS sg13g2_decap_8
X$1653 VDD VSS sg13g2_decap_8
X$1654 VDD VSS sg13g2_decap_4
X$1898 VDD VSS sg13g2_decap_8
X$1899 VDD VSS sg13g2_decap_8
X$1900 VDD VSS sg13g2_decap_8
X$1901 VDD VSS sg13g2_decap_8
X$1902 VDD VSS sg13g2_decap_8
X$1903 VDD VSS sg13g2_decap_8
X$1904 VDD VSS sg13g2_decap_8
X$1905 VDD VSS sg13g2_decap_8
X$1906 VDD VSS sg13g2_decap_8
X$1908 VDD VSS \$700 \$668 \$103 sg13g2_nand2_1
X$1909 \$642 VSS \$700 VDD \$669 \$130 sg13g2_a21oi_1
X$1911 VDD VSS \$669 \$339 \$134 sg13g2_nand2_1
X$1913 VDD VSS \$671 \$339 \$431 sg13g2_nand2_1
X$1914 VDD VSS sg13g2_decap_8
X$1915 VDD VSS sg13g2_decap_8
X$1916 VDD VSS sg13g2_decap_8
X$1917 VDD VSS sg13g2_decap_8
X$1920 VDD VSS sg13g2_decap_4
X$1922 \$649 VSS \$716 VDD \$385 \$130 sg13g2_a21oi_1
X$1924 VDD VSS sg13g2_decap_4
X$1926 VDD VSS \$716 \$672 \$103 sg13g2_nand2_1
X$1928 VDD VSS \$672 \$431 \$722 sg13g2_nand2b_1
X$1930 \$482 VSS \$722 VDD \$484 \$432 sg13g2_a21oi_1
X$1933 VDD VSS sg13g2_decap_8
X$1934 VDD VSS sg13g2_decap_4
X$1936 \$674 VSS \$728 VDD \$726 \$432 sg13g2_a21oi_1
X$1939 VDD VSS sg13g2_decap_4
X$1941 VDD VSS \$490 \$431 \$728 sg13g2_nand2b_1
X$1944 VDD VSS sg13g2_decap_8
X$1947 \$614 VDD VSS sg13g2_tiehi
X$1948 VSS \$614 \$490 \$733 \$140 VDD sg13g2_dfrbpq_1
X$1951 VDD VSS sg13g2_decap_8
X$1952 VDD VSS sg13g2_decap_8
X$1953 VDD VSS sg13g2_decap_8
X$1954 \$1111 VSS \$493 VDD \$492 \$432 sg13g2_a21oi_1
X$1956 VDD VSS sg13g2_decap_4
X$1957 VDD VSS \$617 \$207 \$493 sg13g2_nand2b_1
X$1958 VDD VSS \$663 \$617 \$103 sg13g2_nand2_1
X$1960 VDD VSS sg13g2_decap_8
X$1961 VDD VSS sg13g2_decap_8
X$1964 VDD VSS sg13g2_decap_8
X$1965 VDD VSS sg13g2_decap_8
X$1966 VDD VSS sg13g2_decap_8
X$1968 VDD VSS sg13g2_decap_8
X$1969 VDD VSS sg13g2_decap_8
X$1971 \$661 VDD VSS sg13g2_tiehi
X$1972 VSS \$661 \$499 \$660 \$142 VDD sg13g2_dfrbpq_1
X$1974 VDD VSS sg13g2_decap_8
X$1975 VDD VSS sg13g2_decap_8
X$1976 VDD VSS sg13g2_decap_8
X$1977 VDD VSS \$501 \$570 \$150 sg13g2_nand2_1
X$1978 VDD VSS sg13g2_decap_8
X$1979 VDD VSS sg13g2_decap_8
X$1980 VDD VSS sg13g2_decap_8
X$1981 VDD VSS sg13g2_decap_8
X$1985 VSS VDD \$150 \$445 \$444 \$265 sg13g2_nand3_1
X$1986 VDD VSS sg13g2_decap_4
X$1987 VSS \$106 \$765 VDD sg13g2_buf_16
X$1990 VDD VSS sg13g2_decap_8
X$1991 VDD VSS sg13g2_decap_8
X$1992 VDD VSS sg13g2_decap_8
X$1993 VDD VSS sg13g2_decap_4
X$1995 VSS \$383 VDD \$503 \$651 \$648 sg13g2_o21ai_1
X$1996 VDD VSS \$604 \$353 \$448 sg13g2_nor2_1
X$1999 VSS VDD \$651 \$420 \$604 \$353 sg13g2_nand3_1
X$2000 VDD VSS sg13g2_decap_4
X$2004 VSS \$515 \$353 \$506 \$628 VDD sg13g2_mux2_1
X$2008 VSS \$628 \$453 \$604 VDD sg13g2_nor2_2
X$2010 VSS \$353 VDD \$416 sg13g2_buf_1
X$2013 VDD VSS \$751 \$518 \$628 sg13g2_nand2_1
X$2014 VDD VSS \$270 \$518 \$631 sg13g2_nand2_1
X$2018 \$634 VSS \$685 VDD \$416 \$517 sg13g2_a21oi_1
X$2020 VDD VSS sg13g2_decap_8
X$2021 VDD VSS \$354 \$416 sg13g2_inv_4
X$2023 VDD VSS \$451 \$416 \$531 sg13g2_nor2_1
X$2025 \$533 VSS \$737 VDD \$751 \$517 sg13g2_a21oi_1
X$2026 VDD VSS \$531 \$638 \$742 sg13g2_nand2b_1
X$2028 VDD VSS sg13g2_decap_8
X$2029 VDD VSS sg13g2_decap_8
X$2032 \$534 VDD VSS sg13g2_tiehi
X$2033 VSS \$534 \$223 \$533 \$115 VDD sg13g2_dfrbpq_1
X$2037 VDD VSS sg13g2_decap_8
X$2038 VDD VSS sg13g2_decap_8
X$2040 VDD VSS sg13g2_decap_8
X$2041 VDD VSS sg13g2_decap_8
X$2042 VDD VSS sg13g2_decap_8
X$2043 VDD VSS sg13g2_decap_8
X$2044 VDD VSS sg13g2_decap_8
X$2045 VDD VSS sg13g2_decap_8
X$2046 VDD VSS sg13g2_decap_8
X$2047 VDD VSS sg13g2_decap_8
X$2048 VDD VSS sg13g2_decap_8
X$2049 VSS \$159 \$688 VDD sg13g2_buf_16
X$2050 VDD VSS sg13g2_decap_8
X$2051 VDD VSS sg13g2_decap_8
X$2052 VDD VSS sg13g2_decap_8
X$2053 VDD VSS sg13g2_decap_4
X$2309 VDD VSS sg13g2_decap_8
X$2310 VDD VSS sg13g2_decap_8
X$2311 VDD VSS sg13g2_decap_8
X$2312 VDD VSS sg13g2_decap_8
X$2317 VDD VSS sg13g2_decap_8
X$2318 VDD VSS sg13g2_decap_4
X$2320 VSS \$667 \$668 \$642 \$917 VDD sg13g2_dfrbpq_1
X$2322 VDD VSS \$668 \$431 \$818 sg13g2_nand2b_1
X$2323 \$779 VSS \$818 VDD \$671 \$432 sg13g2_a21oi_1
X$2326 VDD VSS sg13g2_decap_8
X$2327 VDD VSS sg13g2_decap_8
X$2328 VDD VSS sg13g2_decap_8
X$2329 \$780 VDD VSS sg13g2_tiehi
X$2330 VSS \$780 \$672 \$649 \$140 VDD sg13g2_dfrbpq_1
X$2331 VDD VSS sg13g2_decap_8
X$2333 VDD VSS sg13g2_decap_8
X$2334 VDD VSS sg13g2_decap_8
X$2335 VDD VSS sg13g2_decap_8
X$2336 VDD VSS sg13g2_decap_8
X$2337 VDD VSS sg13g2_decap_8
X$2338 VDD VSS sg13g2_decap_8
X$2339 \$931 VDD VSS sg13g2_tiehi
X$2344 VDD VSS sg13g2_decap_4
X$2345 VSS \$140 \$789 VDD sg13g2_buf_16
X$2346 VDD VSS sg13g2_decap_8
X$2347 VDD VSS sg13g2_decap_4
X$2349 \$839 VDD VSS sg13g2_tiehi
X$2350 VSS \$839 \$617 \$417 \$140 VDD sg13g2_dfrbpq_1
X$2351 VDD VSS sg13g2_decap_8
X$2352 \$845 VDD VSS sg13g2_tiehi
X$2353 VSS \$845 \$784 \$783 \$142 VDD sg13g2_dfrbpq_1
X$2354 VDD VSS sg13g2_decap_8
X$2355 VDD VSS sg13g2_decap_8
X$2356 VDD VSS sg13g2_decap_8
X$2357 VDD VSS sg13g2_decap_4
X$2359 \$660 VSS \$677 VDD \$389 \$21 sg13g2_a21oi_1
X$2360 VDD VSS \$677 \$499 \$103 sg13g2_nand2_1
X$2361 VDD VSS sg13g2_decap_8
X$2362 VDD VSS sg13g2_decap_8
X$2367 VDD VSS sg13g2_decap_8
X$2368 VDD VSS sg13g2_decap_8
X$2369 VDD VSS sg13g2_decap_8
X$2370 VDD VSS sg13g2_decap_8
X$2372 \$790 VDD VSS sg13g2_tiehi
X$2374 VSS \$790 \$265 \$865 \$106 VDD sg13g2_dfrbpq_1
X$2375 VDD VSS sg13g2_decap_8
X$2376 VDD VSS sg13g2_decap_8
X$2377 VDD VSS sg13g2_decap_8
X$2378 VDD VSS sg13g2_decap_8
X$2379 VDD VSS sg13g2_decap_8
X$2380 VDD VSS sg13g2_decap_4
X$2382 VDD VSS \$604 \$876 \$679 \$353 sg13g2_nor3_1
X$2383 VDD VSS \$506 \$679 \$604 sg13g2_and2_1
X$2385 VSS \$772 VDD \$269 \$506 \$876 sg13g2_o21ai_1
X$2387 VSS VDD \$906 \$772 \$881 \$742 sg13g2_nand3_1
X$2389 VDD VSS \$648 \$679 \$453 sg13g2_xnor2_1
X$2391 VSS \$269 \$453 \$517 VDD sg13g2_nor2_2
X$2393 VSS \$604 VDD \$631 sg13g2_buf_1
X$2395 VDD VSS \$356 \$631 \$518 sg13g2_nand2b_2
X$2400 VDD VSS sg13g2_decap_8
X$2401 VDD VSS sg13g2_decap_4
X$2402 VDD VSS \$737 \$804 \$354 \$518 sg13g2_nand3b_1
X$2403 VDD VSS sg13g2_decap_8
X$2406 \$638 VSS \$685 VDD \$518 \$517 sg13g2_a21oi_1
X$2407 VDD VSS sg13g2_decap_8
X$2408 VDD VSS sg13g2_decap_8
X$2409 VDD VSS sg13g2_decap_8
X$2410 VDD VSS sg13g2_decap_4
X$2411 VDD VSS \$115 \$I35495 sg13g2_inv_1
X$2412 VSS \$115 \$688 VDD sg13g2_buf_16
X$2413 \$810 VDD VSS sg13g2_tiehi
X$2414 VDD VSS sg13g2_decap_8
X$2415 VDD VSS sg13g2_decap_8
X$2416 VDD VSS sg13g2_decap_8
X$2417 VDD VSS sg13g2_decap_8
X$2418 VDD VSS sg13g2_decap_8
X$2420 \$690 VSS \$704 VDD \$837 \$153 sg13g2_a21oi_1
X$2421 \$811 VDD VSS sg13g2_tiehi
X$2422 VDD VSS sg13g2_decap_4
X$2423 \$832 VSS \$812 VDD \$691 \$156 sg13g2_a21oi_1
X$2424 VDD VSS sg13g2_decap_8
X$2425 VDD VSS \$813 \$229 \$704 sg13g2_nand2b_1
X$2430 VDD VSS sg13g2_decap_8
X$2431 VDD VSS \$695 \$229 \$812 sg13g2_nand2b_1
X$2432 \$816 VDD VSS sg13g2_tiehi
X$2433 VSS \$816 \$695 \$912 \$159 VDD sg13g2_dfrbpq_1
X$2436 VDD VSS sg13g2_decap_8
X$2437 VDD VSS sg13g2_decap_8
X$2438 VDD VSS sg13g2_decap_8
X$2439 VDD VSS sg13g2_decap_8
X$2440 VDD VSS sg13g2_decap_8
X$2441 VDD VSS sg13g2_decap_8
X$2444 \$667 VDD VSS sg13g2_tiehi
X$2446 VDD VSS sg13g2_decap_4
X$2448 VSS \$917 \$720 VDD sg13g2_buf_16
X$2458 VDD VSS sg13g2_decap_8
X$2461 VDD VSS sg13g2_decap_8
X$2462 VDD VSS sg13g2_decap_8
X$2463 VDD VSS sg13g2_decap_8
X$2468 VDD VSS sg13g2_decap_8
X$2471 VDD VSS sg13g2_decap_8
X$2473 VDD VSS sg13g2_decap_8
X$2474 VDD VSS sg13g2_decap_8
X$2478 VDD VSS sg13g2_decap_8
X$2479 VDD VSS sg13g2_decap_8
X$2480 VDD VSS sg13g2_decap_8
X$2481 VDD VSS sg13g2_decap_8
X$2482 VDD VSS sg13g2_decap_8
X$2483 VDD VSS \$830 \$782 \$895 sg13g2_nand2_1
X$2484 VSS \$930 VDD \$830 \$896 \$895 sg13g2_o21ai_1
X$2485 VSS \$931 \$836 \$930 \$140 VDD sg13g2_dfrbpq_1
X$2489 VDD VSS sg13g2_decap_8
X$2492 VDD VSS sg13g2_decap_8
X$2493 VDD VSS sg13g2_decap_8
X$2495 VDD VSS sg13g2_decap_8
X$2499 VDD VSS sg13g2_decap_8
X$2502 VDD VSS sg13g2_decap_8
X$2504 VDD VSS sg13g2_decap_8
X$2505 VDD VSS sg13g2_decap_8
X$2507 VDD VSS sg13g2_decap_8
X$2511 VSS \$783 VDD \$937 \$785 \$898 sg13g2_o21ai_1
X$2513 VDD VSS sg13g2_decap_4
X$2517 VSS VDD \$937 \$898 \$900 \$784 sg13g2_nand3_1
X$2519 VDD VSS sg13g2_decap_8
X$2520 VDD VSS sg13g2_decap_8
X$2522 VDD VSS sg13g2_decap_8
X$2523 VDD VSS \$786 \$785 \$946 sg13g2_nand2b_1
X$2524 VSS \$858 VDD \$946 \$788 \$786 sg13g2_o21ai_1
X$2525 VDD VSS \$788 \$902 \$900 sg13g2_nand2_1
X$2527 \$952 VDD VSS sg13g2_tiehi
X$2529 VSS \$952 \$902 \$858 \$142 VDD sg13g2_dfrbpq_1
X$2536 VDD VSS sg13g2_decap_8
X$2537 VDD VSS sg13g2_decap_8
X$2538 VDD VSS sg13g2_decap_8
X$2539 VDD VSS sg13g2_decap_8
X$2541 VDD VSS sg13g2_decap_8
X$2546 VSS VDD \$865 \$445 \$792 \$1347 sg13g2_nand3_1
X$2548 VDD VSS sg13g2_decap_8
X$2551 VDD VSS \$792 \$265 \$444 sg13g2_nand2b_2
X$2554 \$904 VDD VSS sg13g2_tiehi
X$2556 VSS VDD \$863 \$444 \$265 sg13g2_nor2b_1
X$2558 VDD VSS sg13g2_decap_8
X$2560 VDD VSS sg13g2_decap_8
X$2561 VDD VSS sg13g2_decap_8
X$2563 VDD VSS sg13g2_decap_8
X$2564 VDD VSS sg13g2_decap_8
X$2574 VDD VSS sg13g2_decap_4
X$2580 VDD VSS \$451 \$354 \$420 \$356 \$879 sg13g2_nor4_1
X$2587 VSS VDD \$881 \$420 \$888 \$353 sg13g2_nand3_1
X$2595 VSS \$888 VDD \$685 \$679 \$451 sg13g2_o21ai_1
X$2596 VSS \$518 VDD \$679 sg13g2_buf_1
X$2603 VDD VSS sg13g2_decap_8
X$2609 VDD VSS sg13g2_decap_8
X$2612 VDD VSS sg13g2_decap_8
X$2620 VDD VSS \$631 \$685 sg13g2_inv_1
X$2622 VDD VSS sg13g2_decap_8
X$2624 VDD VSS sg13g2_decap_8
X$2630 VDD VSS sg13g2_decap_8
X$2636 VDD VSS sg13g2_decap_8
X$2640 VDD VSS sg13g2_decap_8
X$2645 VDD VSS sg13g2_decap_8
X$2646 VDD VSS sg13g2_decap_8
X$2647 VDD VSS sg13g2_decap_8
X$2648 VSS \$420 VDD \$908 sg13g2_buf_1
X$2654 VDD VSS \$908 \$517 sg13g2_inv_1
X$2656 VDD VSS sg13g2_decap_8
X$2658 VDD VSS sg13g2_decap_8
X$2662 VDD VSS sg13g2_decap_8
X$2665 VDD VSS sg13g2_decap_8
X$2667 VDD VSS sg13g2_decap_8
X$2669 VDD VSS sg13g2_decap_8
X$2670 VDD VSS sg13g2_decap_8
X$2671 VDD VSS sg13g2_decap_8
X$2672 VDD VSS sg13g2_decap_4
X$2673 VDD VSS \$837 \$910 \$909 sg13g2_nand2_1
X$2679 VSS \$811 \$813 \$832 \$159 VDD sg13g2_dfrbpq_1
X$2691 VDD VSS sg13g2_decap_8
X$2694 VDD VSS sg13g2_decap_8
X$2701 VDD VSS sg13g2_decap_8
X$2707 VDD VSS sg13g2_decap_8
X$2709 VDD VSS sg13g2_decap_8
X$2710 VDD VSS sg13g2_decap_8
X$2714 VDD VSS sg13g2_decap_8
X$2715 VDD VSS sg13g2_decap_8
X$2716 VDD VSS sg13g2_decap_4
X$2718 VSS \$1007 \$1044 \$1038 \$917 VDD sg13g2_dfrbpq_1
X$2721 VDD VSS sg13g2_decap_4
X$2723 \$1043 VDD VSS sg13g2_tiehi
X$2724 VDD VSS \$917 \$I36196 sg13g2_inv_4
X$2728 VSS \$1043 \$1070 \$1009 \$917 VDD sg13g2_dfrbpq_1
X$2734 VDD VSS sg13g2_decap_8
X$2735 VDD VSS sg13g2_decap_4
X$2737 VSS \$967 \$968 \$892 \$1011 VDD sg13g2_dfrbpq_1
X$2743 VDD VSS \$892 \$1014 \$891 sg13g2_nand2_1
X$2744 VDD VSS sg13g2_decap_4
X$2746 \$893 VDD VSS sg13g2_tiehi
X$2747 VSS \$893 \$971 \$969 \$140 VDD sg13g2_dfrbpq_1
X$2756 VDD VSS \$896 \$836 \$1016 sg13g2_nand2_1
X$2761 VDD VSS sg13g2_decap_8
X$2767 VDD VSS sg13g2_decap_8
X$2771 VDD VSS sg13g2_decap_8
X$2775 VDD VSS sg13g2_decap_8
X$2776 VDD VSS sg13g2_decap_4
X$2780 VSS \$895 VDD \$786 sg13g2_buf_1
X$2781 \$1020 VDD VSS sg13g2_tiehi
X$2782 VDD VSS sg13g2_decap_8
X$2783 VDD VSS sg13g2_decap_8
X$2784 VDD VSS sg13g2_decap_8
X$2785 VDD VSS sg13g2_decap_4
X$2786 VSS \$1067 \$973 \$999 \$1076 VDD sg13g2_dfrbpq_1
X$2792 VDD VSS sg13g2_decap_8
X$2800 VDD VSS sg13g2_decap_8
X$2806 VDD VSS sg13g2_decap_8
X$2810 VDD VSS sg13g2_decap_8
X$2812 VDD VSS sg13g2_decap_8
X$2814 VDD VSS sg13g2_decap_8
X$2824 VDD VSS sg13g2_decap_8
X$2838 VDD VSS sg13g2_decap_4
X$2842 \$1085 VDD VSS sg13g2_tiehi
X$2847 VDD VSS sg13g2_decap_8
X$2850 VDD VSS sg13g2_decap_8
X$2854 VDD VSS sg13g2_decap_8
X$2855 VDD VSS sg13g2_decap_8
X$2858 VDD VSS sg13g2_decap_8
X$2859 VDD VSS sg13g2_decap_8
X$2860 VDD VSS sg13g2_decap_8
X$2861 VDD VSS sg13g2_decap_8
X$2862 VDD VSS sg13g2_decap_8
X$2868 VDD VSS sg13g2_decap_8
X$2870 VDD VSS sg13g2_decap_8
X$2878 VSS \$904 \$1027 \$879 \$106 VDD sg13g2_dfrbpq_1
X$2890 VSS \$1028 \$975 \$353 \$1004 VDD sg13g2_dfrbpq_1
X$2893 VSS \$1004 \$765 VDD sg13g2_buf_16
X$2915 VDD VSS sg13g2_decap_8
X$2917 VDD VSS sg13g2_decap_8
X$2920 VDD VSS sg13g2_decap_8
X$2925 VDD VSS sg13g2_decap_8
X$2926 VDD VSS \$804 \$631 \$451 sg13g2_xnor2_1
X$2927 VSS \$979 \$1214 \$518 \$115 VDD sg13g2_dfrbpq_1
X$2930 VDD VSS sg13g2_decap_8
X$2932 VDD VSS sg13g2_decap_8
X$2935 VDD VSS sg13g2_decap_8
X$2938 VDD VSS sg13g2_decap_8
X$2941 VDD VSS sg13g2_decap_4
X$2947 VSS \$810 \$1030 \$517 \$159 VDD sg13g2_dfrbpq_1
X$2949 VDD VSS sg13g2_decap_8
X$2950 VDD VSS sg13g2_decap_8
X$2951 VDD VSS sg13g2_decap_8
X$2953 VDD VSS sg13g2_decap_8
X$2960 VDD VSS sg13g2_decap_4
X$2963 VDD VSS \$691 \$1309 \$909 sg13g2_nand2_1
X$2966 VDD VSS sg13g2_decap_8
X$2968 VDD VSS sg13g2_decap_8
X$2971 VDD VSS sg13g2_decap_8
X$2973 VDD VSS sg13g2_decap_4
X$2974 \$912 VSS \$983 VDD \$1041 \$153 sg13g2_a21oi_1
X$2976 VDD VSS \$1034 \$229 \$983 sg13g2_nand2b_1
X$2977 VDD VSS sg13g2_decap_8
X$2978 VDD VSS sg13g2_decap_8
X$2979 VDD VSS sg13g2_decap_8
X$2981 VDD VSS sg13g2_decap_8
X$2982 VDD VSS sg13g2_decap_8
X$2983 VDD VSS sg13g2_decap_8
X$2986 \$1007 VDD VSS sg13g2_tiehi
X$2992 VDD VSS \$1038 \$1008 \$1127 sg13g2_nand2_1
X$2993 VDD VSS \$1008 \$1095 \$674 sg13g2_nand2_1
X$2996 VDD VSS sg13g2_decap_8
X$2997 VDD VSS sg13g2_decap_8
X$2999 VDD VSS sg13g2_decap_4
X$3003 VSS VDD \$1127 \$1096 \$1193 \$1044 sg13g2_nand3_1
X$3009 VDD VSS \$1009 \$1010 \$1133 sg13g2_nand2_1
X$3011 VDD VSS \$1010 \$1099 \$674 sg13g2_nand2_1
X$3014 VSS VDD \$1133 \$1193 \$1012 \$1070 sg13g2_nand3_1
X$3015 VDD VSS sg13g2_decap_8
X$3017 VDD VSS sg13g2_decap_8
X$3018 VDD VSS sg13g2_decap_8
X$3020 VDD VSS sg13g2_decap_8
X$3024 \$967 VDD VSS sg13g2_tiehi
X$3027 VDD VSS sg13g2_decap_8
X$3028 VDD VSS sg13g2_decap_8
X$3031 VDD VSS sg13g2_decap_4
X$3032 VDD VSS \$1014 \$1095 \$782 sg13g2_nand2_1
X$3034 VSS VDD \$891 \$1096 \$1016 \$968 sg13g2_nand3_1
X$3040 VDD VSS \$1106 \$782 \$1099 sg13g2_nand2_1
X$3041 VDD VSS \$969 \$1106 \$1015 sg13g2_nand2_1
X$3044 VDD VSS sg13g2_decap_4