*SPEF "ieee 1481-1999"
*DESIGN "digital_block_top"
*DATE "22:36:40 Friday March 27, 2026"
*VENDOR "The OpenROAD Project"
*PROGRAM "OpenROAD"
*VERSION "26Q1-2582-gd1dde03fc8"
*DESIGN_FLOW "NAME_SCOPE LOCAL" "PIN_CAP NONE"
*DIVIDER /
*DELIMITER :
*BUS_DELIMITER []
*T_UNIT 1 NS
*C_UNIT 1 PF
*R_UNIT 1 OHM
*L_UNIT 1 HENRY

*NAME_MAP
*1 net237
*2 net238
*3 CLK
*4 net239
*5 net244
*6 net240
*7 net245
*8 net241
*9 net242
*10 net246
*11 net247
*12 net243
*13 _0000_
*14 _0001_
*15 _0002_
*16 _0003_
*17 _0004_
*18 _0005_
*19 _0006_
*20 _0007_
*21 _0008_
*22 _0009_
*23 _0010_
*24 _0011_
*25 _0012_
*26 _0013_
*27 _0014_
*28 _0015_
*29 _0016_
*30 _0017_
*31 _0018_
*32 _0019_
*33 _0020_
*34 _0021_
*35 _0022_
*36 _0023_
*37 _0024_
*38 _0025_
*39 _0026_
*40 _0027_
*41 _0028_
*42 _0029_
*43 _0030_
*44 _0031_
*45 _0032_
*46 _0033_
*47 _0034_
*48 _0035_
*49 _0036_
*50 _0037_
*51 _0038_
*52 _0039_
*53 _0040_
*54 _0041_
*55 _0042_
*56 _0043_
*57 _0044_
*58 _0045_
*59 _0046_
*60 _0047_
*61 _0048_
*62 _0049_
*63 _0050_
*64 _0051_
*65 _0052_
*66 _0053_
*67 _0054_
*68 _0055_
*69 _0056_
*70 _0057_
*71 _0058_
*72 _0059_
*73 _0060_
*74 _0061_
*75 _0062_
*76 _0063_
*77 _0064_
*78 _0065_
*79 _0066_
*80 _0067_
*81 _0068_
*82 _0069_
*83 _0070_
*84 _0071_
*85 _0072_
*86 _0073_
*87 _0074_
*88 _0075_
*89 _0076_
*90 _0077_
*91 _0078_
*92 _0079_
*93 _0080_
*94 _0081_
*95 _0082_
*96 _0083_
*97 _0084_
*98 _0085_
*99 _0086_
*100 _0087_
*101 _0088_
*102 _0089_
*103 _0090_
*104 _0091_
*105 _0092_
*106 _0093_
*107 _0094_
*108 _0095_
*109 _0096_
*110 _0097_
*111 _0098_
*112 _0099_
*113 _0100_
*114 _0101_
*115 _0102_
*116 _0103_
*117 _0104_
*118 _0105_
*119 _0106_
*120 _0107_
*121 _0108_
*122 _0109_
*123 _0110_
*124 _0111_
*125 _0112_
*126 _0113_
*127 _0114_
*128 _0115_
*129 _0116_
*130 _0117_
*131 _0118_
*132 _0119_
*133 _0120_
*134 _0121_
*135 _0122_
*136 _0123_
*137 _0124_
*138 _0125_
*139 _0126_
*140 _0127_
*141 _0128_
*142 _0129_
*143 _0130_
*144 _0131_
*145 _0132_
*146 _0133_
*147 _0134_
*148 _0135_
*149 _0136_
*150 _0137_
*151 _0138_
*152 _0139_
*153 _0140_
*154 _0141_
*155 _0142_
*156 _0143_
*157 _0144_
*158 clknet_leaf_3_CLK
*159 _0146_
*160 _0147_
*161 _0148_
*162 _0149_
*163 _0150_
*164 _0151_
*165 _0152_
*166 _0153_
*167 _0154_
*168 _0155_
*169 _0156_
*170 _0157_
*171 _0158_
*172 net544
*173 _0160_
*174 _0161_
*175 _0162_
*176 _0163_
*177 _0164_
*178 _0165_
*179 _0166_
*180 _0167_
*181 _0168_
*182 _0169_
*183 _0170_
*184 _0171_
*185 _0172_
*186 _0173_
*187 _0174_
*188 _0175_
*189 _0176_
*190 _0177_
*191 _0178_
*192 _0179_
*193 _0180_
*194 _0181_
*195 _0182_
*196 _0183_
*197 _0184_
*198 _0185_
*199 _0186_
*200 _0187_
*201 _0188_
*202 _0189_
*203 _0190_
*204 _0191_
*205 _0192_
*206 _0193_
*207 _0194_
*208 _0195_
*209 _0196_
*210 _0197_
*211 _0198_
*212 _0199_
*213 _0200_
*214 _0201_
*215 _0202_
*216 _0203_
*217 _0204_
*218 _0205_
*219 _0206_
*220 _0207_
*221 _0208_
*222 _0209_
*223 _0210_
*224 _0211_
*225 _0212_
*226 _0213_
*227 _0214_
*228 _0215_
*229 _0216_
*230 _0217_
*231 _0218_
*232 _0219_
*233 _0220_
*234 _0221_
*235 _0222_
*236 _0223_
*237 _0224_
*238 _0225_
*239 _0226_
*240 _0227_
*241 _0228_
*242 _0229_
*243 _0230_
*244 _0231_
*245 _0232_
*246 _0233_
*247 _0234_
*248 _0235_
*249 _0236_
*250 clknet_leaf_15_CLK
*251 _0238_
*252 _0239_
*253 clknet_leaf_17_CLK
*254 _0241_
*255 _0242_
*256 _0243_
*257 _0244_
*258 _0245_
*259 _0246_
*260 _0247_
*261 net539
*262 _0249_
*263 _0250_
*264 net504
*265 net538
*266 net537
*267 _0254_
*268 _0255_
*269 _0256_
*270 net494
*271 _0258_
*272 _0259_
*273 _0260_
*274 _0261_
*275 _0262_
*276 _0263_
*277 _0264_
*278 _0265_
*279 net502
*280 _0267_
*281 _0268_
*282 _0269_
*283 _0270_
*284 _0271_
*285 _0272_
*286 net489
*287 net500
*288 _0275_
*289 _0276_
*290 _0277_
*291 _0278_
*292 _0279_
*293 _0280_
*294 net488
*295 _0282_
*296 _0283_
*297 _0284_
*298 _0285_
*299 _0286_
*300 _0287_
*301 _0288_
*302 _0289_
*303 _0290_
*304 net490
*305 _0292_
*306 _0293_
*307 _0294_
*308 _0295_
*309 _0296_
*310 _0297_
*311 net485
*312 _0299_
*313 _0300_
*314 _0301_
*315 _0302_
*316 _0303_
*317 _0304_
*318 _0305_
*319 net484
*320 _0307_
*321 _0308_
*322 _0309_
*323 _0310_
*324 _0311_
*325 _0312_
*326 _0313_
*327 _0314_
*328 _0315_
*329 net493
*330 _0317_
*331 _0318_
*332 _0319_
*333 _0320_
*334 net487
*335 _0322_
*336 _0323_
*337 _0324_
*338 _0325_
*339 net483
*340 _0327_
*341 _0328_
*342 _0329_
*343 _0330_
*344 _0331_
*345 _0332_
*346 _0333_
*347 _0334_
*348 net486
*349 _0336_
*350 _0337_
*351 net482
*352 _0339_
*353 _0340_
*354 _0341_
*355 net480
*356 _0343_
*357 _0344_
*358 _0345_
*359 _0346_
*360 _0347_
*361 net479
*362 _0349_
*363 _0350_
*364 _0351_
*365 _0352_
*366 _0353_
*367 _0354_
*368 _0355_
*369 _0356_
*370 net478
*371 _0358_
*372 _0359_
*373 net477
*374 _0361_
*375 _0362_
*376 _0363_
*377 _0364_
*378 _0365_
*379 _0366_
*380 _0367_
*381 _0368_
*382 _0369_
*383 net501
*384 net499
*385 net476
*386 net481
*387 net475
*388 _0375_
*389 net473
*390 SCAN_VALID
*391 _0378_
*392 SCAN_OUT
*393 _0380_
*394 _0381_
*395 _0382_
*396 _0383_
*397 _0384_
*398 _0385_
*399 _0386_
*400 _0387_
*401 _0388_
*402 _0389_
*403 MISO
*404 _0391_
*405 _0392_
*406 _0393_
*407 _0394_
*408 _0395_
*409 _0396_
*410 _0397_
*411 DATA_READY
*412 _0399_
*413 _0400_
*414 SCK
*415 _0402_
*416 _0403_
*417 _0404_
*418 _0405_
*419 RESET
*420 _0407_
*421 _0408_
*422 _0409_
*423 _0410_
*424 _0411_
*425 _0412_
*426 _0413_
*427 _0414_
*428 _0415_
*429 _0416_
*430 _0417_
*431 _0418_
*432 _0419_
*433 _0420_
*434 _0421_
*435 _0422_
*436 _0423_
*437 _0424_
*438 _0425_
*439 _0426_
*440 _0427_
*441 _0428_
*442 _0429_
*443 _0430_
*444 _0431_
*445 _0432_
*446 _0433_
*447 _0434_
*448 _0435_
*449 _0436_
*450 _0437_
*451 _0438_
*452 _0439_
*453 _0440_
*454 _0441_
*455 _0442_
*456 _0443_
*457 _0444_
*458 _0445_
*459 _0446_
*460 _0447_
*461 _0448_
*462 _0449_
*463 _0450_
*464 _0451_
*465 _0452_
*466 _0453_
*467 _0454_
*468 _0455_
*469 _0456_
*470 _0457_
*471 _0458_
*472 _0459_
*473 _0460_
*474 _0461_
*475 _0462_
*476 _0463_
*477 _0464_
*478 _0465_
*479 _0466_
*480 _0467_
*481 _0468_
*482 _0469_
*483 _0470_
*484 _0471_
*485 _0472_
*486 _0473_
*487 _0474_
*488 _0475_
*489 _0476_
*490 _0477_
*491 _0478_
*492 _0479_
*493 _0480_
*494 MOSI
*495 _0482_
*496 _0483_
*497 _0484_
*498 _0485_
*499 _0486_
*500 _0487_
*501 _0488_
*502 _0489_
*503 _0490_
*504 _0491_
*505 _0492_
*506 _0493_
*507 _0494_
*508 _0495_
*509 _0496_
*510 _0497_
*511 FREEZE
*512 _0499_
*513 _0500_
*514 _0501_
*515 _0502_
*516 _0503_
*517 _0504_
*518 _0505_
*519 _0506_
*520 _0507_
*521 _0508_
*522 _0509_
*523 _0510_
*524 _0511_
*525 _0512_
*526 _0513_
*527 _0514_
*528 _0515_
*529 _0516_
*530 _0517_
*531 _0518_
*532 _0519_
*533 _0520_
*534 _0521_
*535 _0522_
*536 _0523_
*537 _0524_
*538 _0525_
*539 _0526_
*540 _0527_
*541 _0528_
*542 _0529_
*543 _0530_
*544 _0531_
*545 _0532_
*546 CS
*547 _0534_
*548 _0535_
*549 ADC_INPUT_VALID
*550 _0537_
*551 _0538_
*552 _0539_
*553 _0540_
*554 _0541_
*555 _0542_
*556 _0543_
*557 _0544_
*558 _0545_
*559 _0546_
*560 _0547_
*561 _0548_
*562 _0549_
*563 _0550_
*564 _0551_
*565 _0552_
*566 _0553_
*567 _0554_
*568 _0555_
*569 _0556_
*570 ADC_INPUT
*571 _0558_
*572 _0559_
*573 _0560_
*574 _0561_
*575 _0562_
*576 _0563_
*577 _0564_
*578 _0565_
*579 _0566_
*580 _0567_
*581 _0568_
*582 _0569_
*583 _0570_
*584 _0571_
*585 _0572_
*586 _0573_
*587 _0574_
*588 _0575_
*589 _0576_
*590 _0577_
*591 _0578_
*592 _0579_
*593 _0580_
*594 _0581_
*595 _0582_
*596 _0583_
*597 _0584_
*598 _0585_
*599 _0586_
*600 _0587_
*601 _0588_
*602 _0589_
*603 _0590_
*604 _0591_
*605 _0592_
*606 _0593_
*607 _0594_
*608 _0595_
*609 _0596_
*610 _0597_
*611 _0598_
*612 _0599_
*613 _0600_
*614 _0601_
*615 _0602_
*616 _0603_
*617 _0604_
*618 _0605_
*619 _0606_
*620 _0607_
*621 _0608_
*622 _0609_
*623 _0610_
*624 _0611_
*625 _0612_
*626 _0613_
*627 _0614_
*628 _0615_
*629 _0616_
*630 _0617_
*631 _0618_
*632 _0619_
*633 _0620_
*634 net558
*635 clknet_3_1__leaf_CLK
*636 net556
*637 clknet_leaf_1_CLK
*638 clknet_leaf_0_CLK
*639 net555
*640 _0627_
*641 clknet_leaf_2_CLK
*642 _0629_
*643 _0630_
*644 _0631_
*645 _0632_
*646 _0633_
*647 net554
*648 net548
*649 _0636_
*650 _0637_
*651 net543
*652 _0639_
*653 _0640_
*654 _0641_
*655 net542
*656 _0643_
*657 _0644_
*658 _0645_
*659 _0646_
*660 _0647_
*661 _0648_
*662 net541
*663 _0650_
*664 _0651_
*665 _0652_
*666 _0653_
*667 _0654_
*668 net547
*669 _0656_
*670 _0657_
*671 _0658_
*672 _0659_
*673 _0660_
*674 _0661_
*675 _0662_
*676 _0663_
*677 _0664_
*678 _0665_
*679 _0666_
*680 _0667_
*681 _0668_
*682 _0669_
*683 _0670_
*684 _0671_
*685 _0672_
*686 _0673_
*687 _0674_
*688 net546
*689 _0676_
*690 _0677_
*691 _0678_
*692 _0679_
*693 net545
*694 net553
*695 _0682_
*696 _0683_
*697 _0684_
*698 _0685_
*699 net552
*700 net551
*701 _0688_
*702 _0689_
*703 _0690_
*704 _0691_
*705 _0692_
*706 _0693_
*707 net550
*708 _0695_
*709 _0696_
*710 _0697_
*711 _0698_
*712 _0699_
*713 _0700_
*714 _0701_
*715 _0702_
*716 _0703_
*717 _0704_
*718 _0705_
*719 _0706_
*720 _0707_
*721 _0708_
*722 net549
*723 _0710_
*724 _0711_
*725 _0712_
*726 _0713_
*727 _0714_
*728 _0715_
*729 _0716_
*730 _0717_
*731 _0718_
*732 _0719_
*733 _0720_
*734 _0721_
*735 _0722_
*736 _0723_
*737 _0724_
*738 _0725_
*739 _0726_
*740 _0727_
*741 _0728_
*742 net534
*743 _0730_
*744 _0731_
*745 _0732_
*746 _0733_
*747 _0734_
*748 _0735_
*749 _0736_
*750 _0737_
*751 _0738_
*752 _0739_
*753 _0740_
*754 _0741_
*755 _0742_
*756 _0743_
*757 _0744_
*758 _0745_
*759 _0746_
*760 _0747_
*761 _0748_
*762 _0749_
*763 _0750_
*764 _0751_
*765 _0752_
*766 net564
*767 net533
*768 _0755_
*769 _0756_
*770 net535
*771 net532
*772 net531
*773 net565
*774 _0761_
*775 _0762_
*776 _0763_
*777 net530
*778 _0765_
*779 net528
*780 _0767_
*781 _0768_
*782 net566
*783 net529
*784 net527
*785 net567
*786 net526
*787 net525
*788 _0775_
*789 _0776_
*790 clknet_leaf_21_CLK
*791 _0778_
*792 net524
*793 net523
*794 net521
*795 _0782_
*796 net520
*797 _0784_
*798 _0785_
*799 net522
*800 _0787_
*801 _0788_
*802 _0789_
*803 _0790_
*804 _0791_
*805 _0792_
*806 _0793_
*807 _0794_
*808 _0795_
*809 _0796_
*810 _0797_
*811 _0798_
*812 _0799_
*813 _0800_
*814 _0801_
*815 _0802_
*816 _0803_
*817 _0804_
*818 _0805_
*819 _0806_
*820 _0807_
*821 _0808_
*822 net519
*823 _0810_
*824 _0811_
*825 _0812_
*826 _0813_
*827 _0814_
*828 _0815_
*829 _0816_
*830 _0817_
*831 _0818_
*832 _0819_
*833 _0820_
*834 clknet_leaf_12_CLK
*835 _0822_
*836 _0823_
*837 _0824_
*838 net518
*839 _0826_
*840 _0827_
*841 _0828_
*842 _0829_
*843 _0830_
*844 _0831_
*845 _0832_
*846 _0833_
*847 net517
*848 _0835_
*849 _0836_
*850 _0837_
*851 _0838_
*852 _0839_
*853 _0840_
*854 _0841_
*855 _0842_
*856 _0843_
*857 _0844_
*858 _0845_
*859 _0846_
*860 _0847_
*861 _0848_
*862 _0849_
*863 _0850_
*864 _0851_
*865 _0852_
*866 _0853_
*867 _0854_
*868 _0855_
*869 clknet_leaf_8_CLK
*870 clknet_leaf_11_CLK
*871 _0858_
*872 net515
*873 net516
*874 _0861_
*875 net514
*876 _0863_
*877 _0864_
*878 _0865_
*879 _0866_
*880 _0867_
*881 _0868_
*882 net512
*883 _0870_
*884 _0871_
*885 _0872_
*886 clknet_leaf_7_CLK
*887 net511
*888 net513
*889 net510
*890 _0877_
*891 clknet_leaf_6_CLK
*892 _0879_
*893 _0880_
*894 _0881_
*895 _0882_
*896 _0883_
*897 clknet_leaf_4_CLK
*898 _0885_
*899 _0886_
*900 _0887_
*901 _0888_
*902 _0889_
*903 _0890_
*904 net508
*905 _0892_
*906 _0893_
*907 _0894_
*908 _0895_
*909 _0896_
*910 clknet_leaf_5_CLK
*911 _0898_
*912 _0899_
*913 _0900_
*914 _0901_
*915 _0902_
*916 _0903_
*917 _0904_
*918 _0905_
*919 _0906_
*920 net536
*921 _0908_
*922 _0909_
*923 _0910_
*924 _0911_
*925 _0912_
*926 _0913_
*927 _0914_
*928 _0915_
*929 _0916_
*930 _0917_
*931 _0918_
*932 net509
*933 _0920_
*934 _0921_
*935 _0922_
*936 _0923_
*937 _0924_
*938 _0925_
*939 _0926_
*940 _0927_
*941 _0928_
*942 _0929_
*943 _0930_
*944 _0931_
*945 net507
*946 _0933_
*947 clknet_leaf_14_CLK
*948 _0935_
*949 clknet_leaf_13_CLK
*950 clknet_leaf_19_CLK
*951 _0938_
*952 _0939_
*953 _0940_
*954 _0941_
*955 _0942_
*956 _0943_
*957 _0944_
*958 _0945_
*959 _0946_
*960 _0947_
*961 _0948_
*962 _0949_
*963 _0950_
*964 _0951_
*965 _0952_
*966 _0953_
*967 _0954_
*968 _0955_
*969 _0956_
*970 _0957_
*971 _0958_
*972 _0959_
*973 _0960_
*974 _0961_
*975 _0962_
*976 _0963_
*977 clknet_leaf_10_CLK
*978 _0965_
*979 _0966_
*980 _0967_
*981 _0968_
*982 _0969_
*983 _0970_
*984 _0971_
*985 _0972_
*986 clknet_leaf_9_CLK
*987 _0974_
*988 net506
*989 _0976_
*990 _0977_
*991 _0978_
*992 _0979_
*993 _0980_
*994 _0981_
*995 _0982_
*996 _0983_
*997 _0984_
*998 _0985_
*999 _0986_
*1000 _0987_
*1001 _0988_
*1002 _0989_
*1003 _0990_
*1004 net505
*1005 _0992_
*1006 _0993_
*1007 _0994_
*1008 _0995_
*1009 _0996_
*1010 _0997_
*1011 _0998_
*1012 _0999_
*1013 _1000_
*1014 net503
*1015 _1002_
*1016 _1003_
*1017 _1004_
*1018 _1005_
*1019 _1006_
*1020 _1007_
*1021 net498
*1022 _1009_
*1023 _1010_
*1024 _1011_
*1025 _1012_
*1026 _1013_
*1027 _1014_
*1028 _1015_
*1029 _1016_
*1030 _1017_
*1031 _1018_
*1032 _1019_
*1033 net497
*1034 _1021_
*1035 _1022_
*1036 net540
*1037 _1024_
*1038 _1025_
*1039 _1026_
*1040 _1027_
*1041 _1028_
*1042 _1029_
*1043 _1030_
*1044 _1031_
*1045 _1032_
*1046 _1033_
*1047 _1034_
*1048 _1035_
*1049 _1036_
*1050 _1037_
*1051 _1038_
*1052 _1039_
*1053 _1040_
*1054 _1041_
*1055 _1042_
*1056 _1043_
*1057 _1044_
*1058 _1045_
*1059 _1046_
*1060 _1047_
*1061 _1048_
*1062 _1049_
*1063 _1050_
*1064 _1051_
*1065 _1052_
*1066 _1053_
*1067 _1054_
*1068 _1055_
*1069 _1056_
*1070 _1057_
*1071 _1058_
*1072 net496
*1073 _1060_
*1074 _1061_
*1075 _1062_
*1076 net495
*1077 _1064_
*1078 _1065_
*1080 adc_ready_out_sig
*1081 afe_controller_inst\.AFE_CRTL_OUTPUTS\[0\]
*1082 afe_controller_inst\.AFE_CRTL_OUTPUTS\[10\]
*1083 afe_controller_inst\.AFE_CRTL_OUTPUTS\[1\]
*1084 afe_controller_inst\.AFE_CRTL_OUTPUTS\[2\]
*1085 afe_controller_inst\.AFE_CRTL_OUTPUTS\[3\]
*1086 afe_controller_inst\.AFE_CRTL_OUTPUTS\[4\]
*1087 afe_controller_inst\.AFE_CRTL_OUTPUTS\[6\]
*1088 afe_controller_inst\.AFE_CRTL_OUTPUTS\[7\]
*1089 afe_controller_inst\.AFE_CRTL_OUTPUTS\[8\]
*1090 afe_controller_inst\.AFE_CRTL_OUTPUTS\[9\]
*1091 afe_controller_inst\.CONFIG_VALID
*1092 afe_controller_inst\.CONFIG_VALUES\[0\]
*1093 afe_controller_inst\.CONFIG_VALUES\[2\]
*1094 afe_controller_inst\.CONFIG_VALUES\[3\]
*1095 afe_controller_inst\.CONFIG_VALUES\[4\]
*1096 afe_controller_inst\.clear
*1097 afe_controller_inst\.fifo\.WE
*1098 afe_controller_inst\.fifo\.mem\[0\]\[0\]
*1099 afe_controller_inst\.fifo\.mem\[0\]\[1\]
*1100 afe_controller_inst\.fifo\.mem\[0\]\[2\]
*1101 afe_controller_inst\.fifo\.mem\[0\]\[3\]
*1102 afe_controller_inst\.fifo\.mem\[0\]\[4\]
*1103 afe_controller_inst\.fifo\.mem\[0\]\[5\]
*1104 afe_controller_inst\.fifo\.mem\[0\]\[6\]
*1105 afe_controller_inst\.fifo\.mem\[0\]\[7\]
*1106 afe_controller_inst\.fifo\.mem\[1\]\[0\]
*1107 afe_controller_inst\.fifo\.mem\[1\]\[1\]
*1108 afe_controller_inst\.fifo\.mem\[1\]\[2\]
*1109 afe_controller_inst\.fifo\.mem\[1\]\[3\]
*1110 afe_controller_inst\.fifo\.mem\[1\]\[4\]
*1111 afe_controller_inst\.fifo\.mem\[1\]\[5\]
*1112 afe_controller_inst\.fifo\.mem\[1\]\[6\]
*1113 afe_controller_inst\.fifo\.mem\[1\]\[7\]
*1114 afe_controller_inst\.fifo\.mem\[2\]\[0\]
*1115 afe_controller_inst\.fifo\.mem\[2\]\[1\]
*1116 afe_controller_inst\.fifo\.mem\[2\]\[2\]
*1117 afe_controller_inst\.fifo\.mem\[2\]\[3\]
*1118 afe_controller_inst\.fifo\.mem\[2\]\[4\]
*1119 afe_controller_inst\.fifo\.mem\[2\]\[5\]
*1120 afe_controller_inst\.fifo\.mem\[2\]\[6\]
*1121 afe_controller_inst\.fifo\.mem\[2\]\[7\]
*1122 afe_controller_inst\.fifo\.mem\[3\]\[0\]
*1123 afe_controller_inst\.fifo\.mem\[3\]\[1\]
*1124 afe_controller_inst\.fifo\.mem\[3\]\[2\]
*1125 afe_controller_inst\.fifo\.mem\[3\]\[3\]
*1126 afe_controller_inst\.fifo\.mem\[3\]\[4\]
*1127 afe_controller_inst\.fifo\.mem\[3\]\[5\]
*1128 afe_controller_inst\.fifo\.mem\[3\]\[6\]
*1129 afe_controller_inst\.fifo\.mem\[3\]\[7\]
*1130 afe_controller_inst\.fifo\.r_ptr\[0\]
*1131 afe_controller_inst\.fifo\.r_ptr\[1\]
*1132 afe_controller_inst\.fifo\.r_ptr\[2\]
*1133 afe_controller_inst\.fifo\.w_ptr\[0\]
*1134 afe_controller_inst\.fifo\.w_ptr\[1\]
*1135 afe_controller_inst\.fifo\.w_ptr\[2\]
*1136 afe_controller_inst\.fifo_in_sel\[0\]
*1137 afe_controller_inst\.fifo_in_sel\[1\]
*1138 afe_controller_inst\.valid_control\.state
*1139 main_fsm_top_inst\.MAIN_TOP_OUTPUTS\[0\]
*1140 main_fsm_top_inst\.MAIN_TOP_OUTPUTS\[1\]
*1141 main_fsm_top_inst\.MAIN_TOP_OUTPUTS\[3\]
*1142 main_fsm_top_inst\.MAIN_TOP_OUTPUTS\[4\]
*1143 main_fsm_top_inst\.MAIN_TOP_OUTPUTS\[6\]
*1144 main_fsm_top_inst\.MAIN_TOP_OUTPUTS\[7\]
*1145 main_fsm_top_inst\.MAIN_TOP_OUTPUTS\[8\]
*1146 main_fsm_top_inst\.MAIN_TOP_OUTPUTS\[9\]
*1147 main_fsm_top_inst\.Register_File_inst\.r_addr\[0\]
*1148 main_fsm_top_inst\.Register_File_inst\.r_addr\[1\]
*1149 main_fsm_top_inst\.Register_File_inst\.r_addr\[2\]
*1150 main_fsm_top_inst\.Register_File_inst\.registers\[0\]\[0\]
*1151 main_fsm_top_inst\.Register_File_inst\.registers\[0\]\[1\]
*1152 main_fsm_top_inst\.Register_File_inst\.registers\[0\]\[2\]
*1153 main_fsm_top_inst\.Register_File_inst\.registers\[0\]\[3\]
*1154 main_fsm_top_inst\.Register_File_inst\.registers\[0\]\[4\]
*1155 main_fsm_top_inst\.Register_File_inst\.registers\[0\]\[5\]
*1156 main_fsm_top_inst\.Register_File_inst\.registers\[0\]\[6\]
*1157 main_fsm_top_inst\.Register_File_inst\.registers\[0\]\[7\]
*1158 main_fsm_top_inst\.Register_File_inst\.registers\[1\]\[0\]
*1159 main_fsm_top_inst\.Register_File_inst\.registers\[1\]\[1\]
*1160 main_fsm_top_inst\.Register_File_inst\.registers\[1\]\[2\]
*1161 main_fsm_top_inst\.Register_File_inst\.registers\[1\]\[3\]
*1162 main_fsm_top_inst\.Register_File_inst\.registers\[1\]\[4\]
*1163 main_fsm_top_inst\.Register_File_inst\.registers\[1\]\[5\]
*1164 main_fsm_top_inst\.Register_File_inst\.registers\[1\]\[6\]
*1165 main_fsm_top_inst\.Register_File_inst\.registers\[1\]\[7\]
*1166 main_fsm_top_inst\.Register_File_inst\.registers\[2\]\[0\]
*1167 main_fsm_top_inst\.Register_File_inst\.registers\[2\]\[1\]
*1168 main_fsm_top_inst\.Register_File_inst\.registers\[2\]\[2\]
*1169 main_fsm_top_inst\.Register_File_inst\.registers\[2\]\[3\]
*1170 main_fsm_top_inst\.Register_File_inst\.registers\[2\]\[4\]
*1171 main_fsm_top_inst\.Register_File_inst\.registers\[2\]\[5\]
*1172 main_fsm_top_inst\.Register_File_inst\.registers\[2\]\[6\]
*1173 main_fsm_top_inst\.Register_File_inst\.registers\[2\]\[7\]
*1174 main_fsm_top_inst\.Register_File_inst\.registers\[3\]\[0\]
*1175 main_fsm_top_inst\.Register_File_inst\.registers\[3\]\[1\]
*1176 main_fsm_top_inst\.Register_File_inst\.registers\[3\]\[2\]
*1177 main_fsm_top_inst\.Register_File_inst\.registers\[3\]\[3\]
*1178 main_fsm_top_inst\.Register_File_inst\.registers\[3\]\[4\]
*1179 main_fsm_top_inst\.Register_File_inst\.registers\[3\]\[5\]
*1180 main_fsm_top_inst\.Register_File_inst\.registers\[3\]\[6\]
*1181 main_fsm_top_inst\.Register_File_inst\.registers\[3\]\[7\]
*1182 main_fsm_top_inst\.Register_File_inst\.registers\[4\]\[0\]
*1183 main_fsm_top_inst\.Register_File_inst\.registers\[4\]\[1\]
*1184 main_fsm_top_inst\.Register_File_inst\.registers\[4\]\[2\]
*1185 main_fsm_top_inst\.Register_File_inst\.registers\[4\]\[3\]
*1186 main_fsm_top_inst\.Register_File_inst\.registers\[4\]\[4\]
*1187 main_fsm_top_inst\.Register_File_inst\.registers\[4\]\[5\]
*1188 main_fsm_top_inst\.Register_File_inst\.registers\[4\]\[6\]
*1189 main_fsm_top_inst\.Register_File_inst\.registers\[4\]\[7\]
*1190 main_fsm_top_inst\.Register_File_inst\.registers\[5\]\[0\]
*1191 main_fsm_top_inst\.Register_File_inst\.registers\[5\]\[1\]
*1192 main_fsm_top_inst\.Register_File_inst\.registers\[5\]\[2\]
*1193 main_fsm_top_inst\.Register_File_inst\.registers\[5\]\[3\]
*1194 main_fsm_top_inst\.Register_File_inst\.registers\[5\]\[4\]
*1195 main_fsm_top_inst\.Register_File_inst\.registers\[5\]\[5\]
*1196 main_fsm_top_inst\.Register_File_inst\.registers\[5\]\[6\]
*1197 main_fsm_top_inst\.Register_File_inst\.registers\[5\]\[7\]
*1198 main_fsm_top_inst\.Register_File_inst\.registers\[6\]\[0\]
*1199 main_fsm_top_inst\.Register_File_inst\.registers\[6\]\[1\]
*1200 main_fsm_top_inst\.Register_File_inst\.registers\[6\]\[2\]
*1201 main_fsm_top_inst\.Register_File_inst\.registers\[6\]\[3\]
*1202 main_fsm_top_inst\.Register_File_inst\.registers\[6\]\[4\]
*1203 main_fsm_top_inst\.Register_File_inst\.registers\[6\]\[5\]
*1204 main_fsm_top_inst\.Register_File_inst\.registers\[6\]\[6\]
*1205 main_fsm_top_inst\.Register_File_inst\.registers\[6\]\[7\]
*1206 main_fsm_top_inst\.Register_File_inst\.registers\[7\]\[0\]
*1207 main_fsm_top_inst\.Register_File_inst\.registers\[7\]\[1\]
*1208 main_fsm_top_inst\.Register_File_inst\.registers\[7\]\[2\]
*1209 main_fsm_top_inst\.Register_File_inst\.registers\[7\]\[3\]
*1210 main_fsm_top_inst\.Register_File_inst\.registers\[7\]\[4\]
*1211 main_fsm_top_inst\.Register_File_inst\.registers\[7\]\[5\]
*1212 main_fsm_top_inst\.Register_File_inst\.registers\[7\]\[6\]
*1213 main_fsm_top_inst\.Register_File_inst\.registers\[7\]\[7\]
*1214 main_fsm_top_inst\.spi_dout_rdy_sig
*1215 main_fsm_top_inst\.spi_rx\.data_rg\[0\]
*1216 main_fsm_top_inst\.spi_rx\.data_rg\[1\]
*1217 main_fsm_top_inst\.spi_rx\.data_rg\[2\]
*1218 main_fsm_top_inst\.spi_rx\.data_rg\[3\]
*1219 main_fsm_top_inst\.spi_rx\.data_rg\[4\]
*1220 main_fsm_top_inst\.spi_rx\.data_rg\[5\]
*1221 main_fsm_top_inst\.spi_rx\.data_rg\[6\]
*1222 main_fsm_top_inst\.spi_rx\.data_rg\[7\]
*1223 main_fsm_top_inst\.spi_top_inst\.counter_module\.COUNTER\[0\]
*1224 main_fsm_top_inst\.spi_top_inst\.counter_module\.COUNTER\[1\]
*1225 main_fsm_top_inst\.spi_top_inst\.counter_module\.COUNTER\[2\]
*1226 main_fsm_top_inst\.spi_top_inst\.counter_module\.COUNTER\[3\]
*1227 main_fsm_top_inst\.spi_top_inst\.cs_meta
*1228 main_fsm_top_inst\.spi_top_inst\.edge_dummy
*1229 main_fsm_top_inst\.spi_top_inst\.load_in\[0\]
*1230 main_fsm_top_inst\.spi_top_inst\.load_in\[1\]
*1231 main_fsm_top_inst\.spi_top_inst\.load_in\[2\]
*1232 main_fsm_top_inst\.spi_top_inst\.load_in\[3\]
*1233 main_fsm_top_inst\.spi_top_inst\.load_in\[4\]
*1234 main_fsm_top_inst\.spi_top_inst\.load_in\[5\]
*1235 main_fsm_top_inst\.spi_top_inst\.load_in\[6\]
*1236 main_fsm_top_inst\.spi_top_inst\.load_in\[7\]
*1237 main_fsm_top_inst\.spi_top_inst\.mosi_meta
*1238 main_fsm_top_inst\.spi_top_inst\.mosi_sync
*1239 main_fsm_top_inst\.spi_top_inst\.sck_meta
*1240 main_fsm_top_inst\.spi_top_inst\.sck_sync
*1241 main_fsm_top_inst\.spi_top_inst\.spi_reg\.bit_cell0\.DATA_OUT
*1242 main_fsm_top_inst\.spi_top_inst\.spi_reg\.bit_cell0\.VALUE_OUT
*1243 main_fsm_top_inst\.spi_top_inst\.spi_reg\.bit_cell1\.DATA_OUT
*1244 main_fsm_top_inst\.spi_top_inst\.spi_reg\.bit_cell1\.VALUE_OUT
*1245 main_fsm_top_inst\.spi_top_inst\.spi_reg\.bit_cell2\.DATA_OUT
*1246 main_fsm_top_inst\.spi_top_inst\.spi_reg\.bit_cell2\.VALUE_OUT
*1247 main_fsm_top_inst\.spi_top_inst\.spi_reg\.bit_cell3\.DATA_OUT
*1248 main_fsm_top_inst\.spi_top_inst\.spi_reg\.bit_cell3\.VALUE_OUT
*1249 main_fsm_top_inst\.spi_top_inst\.spi_reg\.bit_cell4\.DATA_OUT
*1250 main_fsm_top_inst\.spi_top_inst\.spi_reg\.bit_cell4\.VALUE_OUT
*1251 main_fsm_top_inst\.spi_top_inst\.spi_reg\.bit_cell5\.DATA_OUT
*1252 main_fsm_top_inst\.spi_top_inst\.spi_reg\.bit_cell5\.VALUE_OUT
*1253 main_fsm_top_inst\.spi_top_inst\.spi_reg\.bit_cell6\.DATA_OUT
*1254 main_fsm_top_inst\.spi_top_inst\.spi_reg\.bit_cell6\.VALUE_OUT
*1255 main_fsm_top_inst\.spi_top_inst\.spi_reg\.bit_cell7\.DATA_OUT
*1256 main_fsm_top_inst\.spi_top_inst\.spi_reg\.bit_cell7\.VALUE_OUT
*1257 main_fsm_top_inst\.spi_tx\.bypass_rg
*1258 main_fsm_top_inst\.spi_tx\.data_rg\[0\]
*1259 main_fsm_top_inst\.spi_tx\.data_rg\[1\]
*1260 main_fsm_top_inst\.spi_tx\.data_rg\[2\]
*1261 main_fsm_top_inst\.spi_tx\.data_rg\[3\]
*1262 main_fsm_top_inst\.spi_tx\.data_rg\[4\]
*1263 main_fsm_top_inst\.spi_tx\.data_rg\[5\]
*1264 main_fsm_top_inst\.spi_tx\.data_rg\[6\]
*1265 main_fsm_top_inst\.spi_tx\.data_rg\[7\]
*1266 serializer_inst\.fake_adc\.sipo_flip_flops\[0\]
*1267 serializer_inst\.fake_adc\.sipo_flip_flops\[1\]
*1268 serializer_inst\.fake_adc\.sipo_flip_flops\[2\]
*1269 serializer_inst\.fake_adc\.sipo_flip_flops\[3\]
*1270 serializer_inst\.fake_adc\.sipo_flip_flops\[4\]
*1271 serializer_inst\.fake_adc\.sipo_flip_flops\[5\]
*1272 serializer_inst\.fake_adc\.sipo_flip_flops\[6\]
*1273 serializer_inst\.fake_adc\.sipo_flip_flops\[7\]
*1274 serializer_inst\.fake_adc\.sipo_flip_flops\[8\]
*1275 serializer_inst\.fake_adc\.sipo_flip_flops\[9\]
*1276 serializer_inst\.fake_adc\.skid\.bypass_rg
*1277 serializer_inst\.fake_adc\.skid\.data_rg\[0\]
*1278 serializer_inst\.fake_adc\.skid\.data_rg\[1\]
*1279 serializer_inst\.fake_adc\.skid\.data_rg\[2\]
*1280 serializer_inst\.fake_adc\.skid\.data_rg\[3\]
*1281 serializer_inst\.fake_adc\.skid\.data_rg\[4\]
*1282 serializer_inst\.fake_adc\.skid\.data_rg\[5\]
*1283 serializer_inst\.fake_adc\.skid\.data_rg\[6\]
*1284 serializer_inst\.fake_adc\.skid\.data_rg\[7\]
*1285 serializer_inst\.fake_adc\.skid\.data_rg\[8\]
*1286 serializer_inst\.fake_adc\.skid\.data_rg\[9\]
*1287 serializer_inst\.freeze_delay
*1288 serializer_inst\.piso\.piso_flip_flops\[0\]
*1289 serializer_inst\.piso\.piso_flip_flops\[10\]
*1290 serializer_inst\.piso\.piso_flip_flops\[11\]
*1291 serializer_inst\.piso\.piso_flip_flops\[12\]
*1292 serializer_inst\.piso\.piso_flip_flops\[13\]
*1293 serializer_inst\.piso\.piso_flip_flops\[14\]
*1294 serializer_inst\.piso\.piso_flip_flops\[15\]
*1295 serializer_inst\.piso\.piso_flip_flops\[16\]
*1296 serializer_inst\.piso\.piso_flip_flops\[17\]
*1297 serializer_inst\.piso\.piso_flip_flops\[18\]
*1298 serializer_inst\.piso\.piso_flip_flops\[19\]
*1299 serializer_inst\.piso\.piso_flip_flops\[1\]
*1300 serializer_inst\.piso\.piso_flip_flops\[20\]
*1301 serializer_inst\.piso\.piso_flip_flops\[2\]
*1302 serializer_inst\.piso\.piso_flip_flops\[3\]
*1303 serializer_inst\.piso\.piso_flip_flops\[4\]
*1304 serializer_inst\.piso\.piso_flip_flops\[5\]
*1305 serializer_inst\.piso\.piso_flip_flops\[6\]
*1306 serializer_inst\.piso\.piso_flip_flops\[7\]
*1307 serializer_inst\.piso\.piso_flip_flops\[8\]
*1308 serializer_inst\.piso\.piso_flip_flops\[9\]
*1309 net
*1310 net1
*1311 net2
*1312 net3
*1313 net4
*1314 net5
*1315 net6
*1316 net7
*1317 net8
*1318 net9
*1319 net10
*1320 net11
*1321 net12
*1322 net13
*1323 net14
*1324 net15
*1325 net16
*1326 net17
*1327 net18
*1328 net19
*1329 net20
*1330 net21
*1331 net22
*1332 net23
*1333 net24
*1334 net25
*1335 net26
*1336 net27
*1337 net28
*1338 net29
*1339 net30
*1340 net31
*1341 net32
*1342 net33
*1343 net34
*1344 net35
*1345 net36
*1346 net37
*1347 net38
*1348 net39
*1349 net40
*1350 net41
*1351 net42
*1352 net43
*1353 net44
*1354 net45
*1355 net46
*1356 net47
*1357 net48
*1358 net49
*1359 net50
*1360 net51
*1361 net52
*1362 net53
*1363 net54
*1364 net55
*1365 net56
*1366 net57
*1367 net58
*1368 net59
*1369 net60
*1370 net61
*1371 net62
*1372 net63
*1373 net64
*1374 net65
*1375 net66
*1376 net67
*1377 net68
*1378 net69
*1379 net70
*1380 net71
*1381 net72
*1382 net73
*1383 net74
*1384 net75
*1385 net76
*1386 net77
*1387 net78
*1388 net79
*1389 net80
*1390 net81
*1391 net82
*1392 net83
*1393 net84
*1394 net85
*1395 net86
*1396 net87
*1397 net88
*1398 net89
*1399 net90
*1400 net91
*1401 net92
*1402 net93
*1403 net94
*1404 net95
*1405 net96
*1406 net97
*1407 net98
*1408 net99
*1409 net100
*1410 net101
*1411 net102
*1412 net103
*1413 net104
*1414 net105
*1415 net106
*1416 net107
*1417 net108
*1418 net109
*1419 net110
*1420 net111
*1421 net112
*1422 net113
*1423 net114
*1424 net115
*1425 net116
*1426 net117
*1427 net118
*1428 net119
*1429 net120
*1430 net121
*1431 net122
*1432 net123
*1433 net124
*1434 net125
*1435 net126
*1436 net127
*1437 net128
*1438 net129
*1439 net130
*1440 net131
*1441 net132
*1442 net133
*1443 net134
*1444 net135
*1445 net136
*1446 net137
*1447 net138
*1448 net139
*1449 net140
*1450 net141
*1451 net142
*1452 net143
*1453 net144
*1454 net145
*1455 net146
*1456 net147
*1457 net148
*1458 net149
*1459 net150
*1460 net151
*1461 net152
*1462 net153
*1463 net154
*1464 net155
*1465 net156
*1466 net157
*1467 net158
*1468 net159
*1469 net160
*1470 net161
*1471 net162
*1472 net163
*1473 net164
*1474 net165
*1475 net166
*1476 net167
*1477 net168
*1478 net169
*1479 net170
*1480 net171
*1481 net172
*1482 net173
*1483 net174
*1484 net175
*1485 net176
*1486 net177
*1487 net178
*1488 net179
*1489 net180
*1490 net181
*1491 net182
*1492 net183
*1493 net184
*1494 net185
*1495 net186
*1496 net187
*1497 net188
*1498 net189
*1499 net190
*1500 net191
*1501 net192
*1502 net193
*1503 net194
*1504 net195
*1505 net196
*1506 net197
*1507 net198
*1508 net199
*1509 net200
*1510 net201
*1511 net202
*1512 net203
*1513 net204
*1514 net205
*1515 net206
*1516 net207
*1517 net208
*1518 net209
*1519 net210
*1520 net211
*1521 net212
*1522 net213
*1523 net214
*1524 net215
*1525 net216
*1526 net217
*1527 net218
*1528 net219
*1529 net220
*1530 net221
*1531 net222
*1532 net223
*1533 net224
*1534 net225
*1535 net226
*1536 net227
*1537 net228
*1538 net229
*1539 net230
*1540 net231
*1541 net232
*1542 net233
*1543 net234
*1544 net235
*1545 net236
*1547 net557
*1548 clknet_0_CLK
*1549 net561
*1550 net559
*1551 net560
*1552 clknet_leaf_35_CLK
*1553 net562
*1554 clknet_leaf_31_CLK
*1555 clknet_leaf_29_CLK
*1556 net563
*1557 clknet_leaf_30_CLK
*1558 clknet_leaf_34_CLK
*1559 clknet_leaf_32_CLK
*1560 clknet_leaf_33_CLK
*1561 clknet_3_0__leaf_CLK
*1562 net474
*1563 net471
*1564 net491
*1565 net492
*1566 net472
*1567 clknet_leaf_16_CLK
*1568 clknet_leaf_18_CLK
*1569 clknet_leaf_20_CLK
*1570 clknet_leaf_26_CLK
*1571 clknet_leaf_24_CLK
*1572 clknet_leaf_23_CLK
*1573 clknet_leaf_25_CLK
*1574 clknet_leaf_28_CLK
*1575 clknet_leaf_27_CLK
*1576 clknet_3_2__leaf_CLK
*1577 clknet_3_3__leaf_CLK
*1578 clknet_3_4__leaf_CLK
*1579 clknet_3_5__leaf_CLK
*1580 clknet_3_6__leaf_CLK
*1581 clknet_3_7__leaf_CLK
*1582 place559
*1583 clkbuf_3_1__f_CLK
*1584 place557
*1585 clkbuf_leaf_1_CLK
*1586 clkbuf_leaf_0_CLK
*1587 place556
*1588 _1073_
*1589 clkbuf_leaf_2_CLK
*1590 _1075_
*1591 _1076_
*1592 _1077_
*1593 _1078_
*1594 _1079_
*1595 place555
*1596 place549
*1597 _1082_
*1598 _1083_